ESI
 OpenBabel11102215283D

 21 22  0  0  0  0  0  0  0  0999 V2000
    8.7970    1.2810   25.0360 C   0  0  0  0  0  0  0  0  0  0  0  0
    9.6560    1.9830   23.6060 S   0  0  0  0  0  0  0  0  0  0  0  0
    9.6450    3.6150   24.2990 C   0  0  0  0  0  0  0  0  0  0  0  0
    9.0170    3.5680   25.5340 C   0  0  0  0  0  0  0  0  0  0  0  0
    8.5790    2.3240   25.9090 C   0  0  0  0  0  0  0  0  0  0  0  0
   10.1420    4.7830   23.7670 C   0  0  0  0  0  0  0  0  0  0  0  0
   10.0180    5.9530   24.5010 C   0  0  0  0  0  0  0  0  0  0  0  0
    9.3940    5.9330   25.7420 C   0  0  0  0  0  0  0  0  0  0  0  0
    8.8910    4.7490   26.2670 C   0  0  0  0  0  0  0  0  0  0  0  0
    7.9900    4.8530   28.1720 I   0  0  0  0  0  0  0  0  0  0  0  0
    8.4790   -0.0710   25.1140 C   0  0  0  0  0  0  0  0  0  0  0  0
    8.3840   -0.5710   26.3120 N   0  3  0  0  0  0  0  0  0  0  0  0
    8.2830   -0.7660   24.0250 N   0  0  0  0  0  0  0  0  0  0  0  0
    8.0719    2.1647   26.8721 H   0  0  0  0  0  0  0  0  0  0  0  0
   10.6275    4.7883   22.7800 H   0  0  0  0  0  0  0  0  0  0  0  0
   10.4141    6.8977   24.1002 H   0  0  0  0  0  0  0  0  0  0  0  0
    9.2969    6.8662   26.3162 H   0  0  0  0  0  0  0  0  0  0  0  0
    8.1512   -1.5664   26.4376 H   0  0  0  0  0  0  0  0  0  0  0  0
    8.5416    0.0288   27.1344 H   0  0  0  0  0  0  0  0  0  0  0  0
    8.0478   -1.7668   24.0881 H   0  0  0  0  0  0  0  0  0  0  0  0
    8.3637   -0.3131   23.1035 H   0  0  0  0  0  0  0  0  0  0  0  0
  2  1  1  0  0  0  0
  3  2  1  0  0  0  0
  4  3  2  0  0  0  0
  5  4  1  0  0  0  0
  5  1  2  0  0  0  0
  5 14  1  0  0  0  0
  6  3  1  0  0  0  0
  6 15  1  0  0  0  0
  7  6  2  0  0  0  0
  7 16  1  0  0  0  0
  8  7  1  0  0  0  0
  8 17  1  0  0  0  0
  9  4  1  0  0  0  0
  9  8  2  0  0  0  0
 10  9  1  0  0  0  0
 11  1  1  0  0  0  0
 12 11  2  0  0  0  0
 12 18  1  0  0  0  0
 12 19  1  0  0  0  0
 13 11  1  0  0  0  0
 13 20  1  0  0  0  0
 13 21  1  0  0  0  0
M  CHG  1  12   1
M  END
$$$$
