FPT
 OpenBabel06142215303D

 40 41  0  0  0  0  0  0  0  0999 V2000
   -0.0690  -36.3950   19.6870 C   0  0  0  0  0  0  0  0  0  0  0  0
    0.0880  -36.3240   21.0640 N   0  0  0  0  0  0  0  0  0  0  0  0
   -0.9490  -35.9410   21.8910 C   0  0  0  0  0  0  0  0  0  0  0  0
   -2.2010  -35.6250   21.3130 C   0  0  0  0  0  0  0  0  0  0  0  0
   -2.3430  -35.6780   19.9140 C   0  0  0  0  0  0  0  0  0  0  0  0
   -1.2950  -36.0540   19.0930 C   0  0  0  0  0  0  0  0  0  0  0  0
   -3.3660  -35.3140   22.1310 C   0  0  0  0  0  0  0  0  0  0  0  0
   -4.3240  -35.0980   22.7580 N   0  0  0  0  0  0  0  0  0  0  0  0
    0.8470  -36.9650   18.8790 N   0  0  0  0  0  0  0  0  0  0  0  0
    1.6040  -38.0250   19.0170 C   0  0  0  0  0  0  0  0  0  0  0  0
    1.2190  -39.3040   20.0970 S   0  0  0  0  0  0  0  0  0  0  0  0
    2.6690  -38.0520   18.2440 N   0  0  0  0  0  0  0  0  0  0  0  0
    3.9330  -37.4350   18.6530 C   0  0  0  0  0  0  0  0  0  0  0  0
    5.1970  -38.1420   18.1280 C   0  0  0  0  0  0  0  0  0  0  0  0
    6.4560  -37.3450   18.3990 C   0  0  0  0  0  0  0  0  0  0  0  0
    7.2240  -37.7320   19.4830 N   0  0  0  0  0  0  0  0  0  0  0  0
    8.3740  -37.0700   19.8620 C   0  0  0  0  0  0  0  0  0  0  0  0
    8.7920  -35.9520   19.1360 C   0  0  0  0  0  0  0  0  0  0  0  0
    8.0250  -35.5240   18.0290 C   0  0  0  0  0  0  0  0  0  0  0  0
    6.8510  -36.2220   17.6280 C   0  0  0  0  0  0  0  0  0  0  0  0
    6.1940  -35.8750   16.5010 F   0  0  0  0  0  0  0  0  0  0  0  0
    8.3840  -34.3260   17.4120 O   0  0  0  0  0  0  0  0  0  0  0  0
    9.2030  -33.4550   18.1910 C   0  0  0  0  0  0  0  0  0  0  0  0
    8.3840  -32.2470   18.6330 C   0  0  0  0  0  0  0  0  0  0  0  0
   -0.8044  -35.8826   22.9799 H   0  0  0  0  0  0  0  0  0  0  0  0
   -3.3107  -35.4141   19.4623 H   0  0  0  0  0  0  0  0  0  0  0  0
   -1.4191  -36.0852   18.0005 H   0  0  0  0  0  0  0  0  0  0  0  0
    0.9762  -36.4738   17.9829 H   0  0  0  0  0  0  0  0  0  0  0  0
    2.6121  -38.5191   17.3278 H   0  0  0  0  0  0  0  0  0  0  0  0
    3.9428  -36.3986   18.2847 H   0  0  0  0  0  0  0  0  0  0  0  0
    3.9715  -37.5063   19.7500 H   0  0  0  0  0  0  0  0  0  0  0  0
    5.2852  -39.1213   18.6212 H   0  0  0  0  0  0  0  0  0  0  0  0
    5.0945  -38.2489   17.0380 H   0  0  0  0  0  0  0  0  0  0  0  0
    8.9560  -37.4193   20.7276 H   0  0  0  0  0  0  0  0  0  0  0  0
    9.7064  -35.4118   19.4224 H   0  0  0  0  0  0  0  0  0  0  0  0
    9.5707  -33.9928   19.0773 H   0  0  0  0  0  0  0  0  0  0  0  0
   10.0575  -33.1171   17.5863 H   0  0  0  0  0  0  0  0  0  0  0  0
    8.3558  -32.2053   19.7318 H   0  0  0  0  0  0  0  0  0  0  0  0
    8.8461  -31.3281   18.2430 H   0  0  0  0  0  0  0  0  0  0  0  0
    7.3593  -32.3361   18.2430 H   0  0  0  0  0  0  0  0  0  0  0  0
  2  1  2  0  0  0  0
  3  2  1  0  0  0  0
  3 25  1  0  0  0  0
  4  3  2  0  0  0  0
  5  4  1  0  0  0  0
  5 26  1  0  0  0  0
  6  5  2  0  0  0  0
  6  1  1  0  0  0  0
  6 27  1  0  0  0  0
  7  4  1  0  0  0  0
  8  7  3  0  0  0  0
  9  1  1  0  0  0  0
  9 28  1  0  0  0  0
 10  9  1  0  0  0  0
 11 10  2  0  0  0  0
 12 10  1  0  0  0  0
 12 29  1  0  0  0  0
 13 12  1  0  0  0  0
 13 30  1  0  0  0  0
 13 31  1  0  0  0  0
 14 13  1  0  0  0  0
 14 32  1  0  0  0  0
 14 33  1  0  0  0  0
 15 14  1  0  0  0  0
 16 15  2  0  0  0  0
 17 16  1  0  0  0  0
 17 34  1  0  0  0  0
 18 17  2  0  0  0  0
 18 35  1  0  0  0  0
 19 18  1  0  0  0  0
 20 19  2  0  0  0  0
 20 15  1  0  0  0  0
 21 20  1  0  0  0  0
 22 19  1  0  0  0  0
 23 22  1  0  0  0  0
 23 36  1  0  0  0  0
 23 37  1  0  0  0  0
 24 23  1  0  0  0  0
 24 38  1  0  0  0  0
 24 39  1  0  0  0  0
 24 40  1  0  0  0  0
M  END
$$$$
