XMK
 OpenBabel06022216133D

 60 63  0  0  0  0  0  0  0  0999 V2000
    7.5430   12.3580   19.4630 C   0  0  0  0  0  0  0  0  0  0  0  0
    6.7760   11.9050   18.1850 C   0  0  0  0  0  0  0  0  0  0  0  0
    5.3280   11.4770   18.3860 N   0  0  0  0  0  0  0  0  0  0  0  0
    5.8240   11.3070   20.9480 C   0  0  0  0  0  0  0  0  0  0  0  0
    4.9730   10.8620   19.7240 C   0  0  0  0  0  0  0  0  0  0  0  0
    7.2850   11.4640   20.6560 N   0  0  0  0  0  0  0  0  0  0  0  0
    8.0240   11.8730   21.8900 C   0  0  0  0  0  0  0  0  0  0  0  0
    9.1350   10.9380   22.4990 C   0  0  0  0  0  0  0  0  0  0  0  0
   10.0040   11.5690   23.6600 C   0  0  0  0  0  0  0  0  0  0  0  0
   11.1050   10.5800   24.2250 C   0  0  0  0  0  0  0  0  0  0  0  0
   10.6540    9.1180   24.4980 N   0  0  0  0  0  0  0  0  0  0  0  0
    9.5620    8.5520   23.5480 C   0  0  0  0  0  0  0  0  0  0  0  0
    8.5150    9.5540   22.9370 C   0  0  0  0  0  0  0  0  0  0  0  0
   11.2500    8.2800   25.6280 C   0  0  0  0  0  0  0  0  0  0  0  0
   10.4140    7.3370   26.4370 C   0  0  0  0  0  0  0  0  0  0  0  0
   11.0330    6.5600   27.4990 C   0  0  0  0  0  0  0  0  0  0  0  0
   12.3930    6.6570   27.8010 N   0  0  0  0  0  0  0  0  0  0  0  0
   13.2130    7.5210   27.0760 C   0  0  0  0  0  0  0  0  0  0  0  0
   12.7020    8.3470   25.9930 C   0  0  0  0  0  0  0  0  0  0  0  0
    4.6100   10.6310   17.0410 S   0  0  0  0  0  0  0  0  0  0  0  0
    5.4090   10.8890   15.7530 O   0  0  0  0  0  0  0  0  0  0  0  0
    3.1890   11.1680   16.8420 O   0  0  0  0  0  0  0  0  0  0  0  0
    4.5770    8.9040   17.4400 C   0  0  0  0  0  0  0  0  0  0  0  0
    5.0650    7.9190   16.6300 C   0  0  0  0  0  0  0  0  0  0  0  0
    5.0340    6.4220   16.9630 C   0  0  0  0  0  0  0  0  0  0  0  0
    4.0210    5.8060   17.8670 C   0  0  0  0  0  0  0  0  0  0  0  0
    4.0370    4.3820   18.1450 C   0  0  0  0  0  0  0  0  0  0  0  0
    5.0500    3.4970   17.5480 C   0  0  0  0  0  0  0  0  0  0  0  0
    5.0510    1.7810   17.8900 Cl  0  0  0  0  0  0  0  0  0  0  0  0
    6.0550    4.0920   16.6550 C   0  0  0  0  0  0  0  0  0  0  0  0
    6.0450    5.5310   16.3680 C   0  0  0  0  0  0  0  0  0  0  0  0
    8.6213   12.3500   19.2458 H   0  0  0  0  0  0  0  0  0  0  0  0
    7.1836   13.3647   19.7227 H   0  0  0  0  0  0  0  0  0  0  0  0
    6.7822   12.7448   17.4745 H   0  0  0  0  0  0  0  0  0  0  0  0
    7.3018   11.0068   17.8290 H   0  0  0  0  0  0  0  0  0  0  0  0
    5.4375   12.2735   21.3037 H   0  0  0  0  0  0  0  0  0  0  0  0
    5.7361   10.5096   21.7006 H   0  0  0  0  0  0  0  0  0  0  0  0
    3.9240   11.1143   19.9385 H   0  0  0  0  0  0  0  0  0  0  0  0
    5.1740    9.7866   19.6091 H   0  0  0  0  0  0  0  0  0  0  0  0
    8.5092   12.8339   21.6637 H   0  0  0  0  0  0  0  0  0  0  0  0
    7.2413   11.8655   22.6628 H   0  0  0  0  0  0  0  0  0  0  0  0
    9.8540   10.7860   21.6805 H   0  0  0  0  0  0  0  0  0  0  0  0
   10.5071   12.4668   23.2715 H   0  0  0  0  0  0  0  0  0  0  0  0
    9.3201   11.8040   24.4889 H   0  0  0  0  0  0  0  0  0  0  0  0
   11.9275   10.5446   23.4955 H   0  0  0  0  0  0  0  0  0  0  0  0
   11.3818   10.9863   25.2090 H   0  0  0  0  0  0  0  0  0  0  0  0
   10.0804    8.0691   22.7066 H   0  0  0  0  0  0  0  0  0  0  0  0
    8.9620    7.8883   24.1880 H   0  0  0  0  0  0  0  0  0  0  0  0
    8.0597    9.0831   22.0532 H   0  0  0  0  0  0  0  0  0  0  0  0
    7.7799    9.7688   23.7266 H   0  0  0  0  0  0  0  0  0  0  0  0
    9.3388    7.2328   26.2293 H   0  0  0  0  0  0  0  0  0  0  0  0
   10.4075    5.8711   28.0856 H   0  0  0  0  0  0  0  0  0  0  0  0
   14.2813    7.5799   27.3314 H   0  0  0  0  0  0  0  0  0  0  0  0
   13.3788    9.0182   25.4441 H   0  0  0  0  0  0  0  0  0  0  0  0
    4.1348    8.6067   18.4023 H   0  0  0  0  0  0  0  0  0  0  0  0
    5.5119    8.2203   15.6711 H   0  0  0  0  0  0  0  0  0  0  0  0
    3.2505    6.4401   18.3298 H   0  0  0  0  0  0  0  0  0  0  0  0
    3.2766    3.9553   18.8156 H   0  0  0  0  0  0  0  0  0  0  0  0
    6.8229    3.4513   16.1969 H   0  0  0  0  0  0  0  0  0  0  0  0
    6.8069    5.9524   15.6958 H   0  0  0  0  0  0  0  0  0  0  0  0
  1 32  1  0  0  0  0
  1 33  1  0  0  0  0
  2  1  1  0  0  0  0
  2 34  1  0  0  0  0
  2 35  1  0  0  0  0
  3  2  1  0  0  0  0
  4 36  1  0  0  0  0
  4 37  1  0  0  0  0
  5  3  1  0  0  0  0
  5  4  1  0  0  0  0
  5 38  1  0  0  0  0
  5 39  1  0  0  0  0
  6  4  1  0  0  0  0
  6  1  1  0  0  0  0
  7  6  1  0  0  0  0
  7 40  1  0  0  0  0
  7 41  1  0  0  0  0
  8  7  1  0  0  0  0
  8 42  1  0  0  0  0
  9  8  1  0  0  0  0
  9 43  1  0  0  0  0
  9 44  1  0  0  0  0
 10  9  1  0  0  0  0
 10 45  1  0  0  0  0
 10 46  1  0  0  0  0
 11 10  1  0  0  0  0
 12 11  1  0  0  0  0
 12 47  1  0  0  0  0
 12 48  1  0  0  0  0
 13 12  1  0  0  0  0
 13  8  1  0  0  0  0
 13 49  1  0  0  0  0
 13 50  1  0  0  0  0
 14 11  1  0  0  0  0
 15 14  2  0  0  0  0
 15 51  1  0  0  0  0
 16 15  1  0  0  0  0
 16 52  1  0  0  0  0
 17 16  2  0  0  0  0
 18 17  1  0  0  0  0
 18 53  1  0  0  0  0
 19 18  2  0  0  0  0
 19 14  1  0  0  0  0
 19 54  1  0  0  0  0
 20  3  1  0  0  0  0
 21 20  2  0  0  0  0
 22 20  2  0  0  0  0
 23 20  1  0  0  0  0
 23 55  1  0  0  0  0
 24 23  2  3  0  0  0
 24 56  1  0  0  0  0
 25 24  1  0  0  0  0
 26 25  2  0  0  0  0
 26 57  1  0  0  0  0
 27 26  1  0  0  0  0
 27 58  1  0  0  0  0
 28 27  2  0  0  0  0
 29 28  1  0  0  0  0
 30 28  1  0  0  0  0
 30 59  1  0  0  0  0
 31 25  1  0  0  0  0
 31 30  2  0  0  0  0
 31 60  1  0  0  0  0
M  END
$$$$
