3CB
 OpenBabel05132215303D

 78 79  0  0  0  0  0  0  0  0999 V2000
   30.0660    7.2390    7.3730 O   0  0  0  0  0  0  0  0  0  0  0  0
   30.9280    6.4090    7.0740 C   0  0  0  0  0  0  0  0  0  0  0  0
   31.9000    5.9690    7.9260 N   0  0  0  0  0  0  0  0  0  0  0  0
   30.9370    5.7920    5.6570 C   0  0  1  0  0  0  0  0  0  0  0  0
   29.4540    5.4100    5.3280 C   0  0  2  0  0  0  0  0  0  0  0  0
   29.2620    3.9590    4.8220 C   0  0  0  0  0  0  0  0  0  0  0  0
   28.7830    6.4250    4.4050 C   0  0  0  0  0  0  0  0  0  0  0  0
   27.3970    6.8030    4.9230 C   0  0  0  0  0  0  0  0  0  0  0  0
   31.3980    6.7570    4.6430 N   0  0  0  0  0  0  0  0  0  0  0  0
   32.8080    6.4160    3.6940 S   0  0  0  0  0  0  0  0  0  0  0  0
   32.5720    5.1090    3.2010 O   0  0  0  0  0  0  0  0  0  0  0  0
   32.9100    7.5000    2.7880 O   0  0  0  0  0  0  0  0  0  0  0  0
   34.2000    6.3630    4.7770 C   0  0  0  0  0  0  0  0  0  0  0  0
   34.8430    7.6760    5.0100 C   0  0  0  0  0  0  0  0  0  0  0  0
   34.4280    8.4710    6.0860 C   0  0  0  0  0  0  0  0  0  0  0  0
   35.0660    9.6910    6.3560 C   0  0  0  0  0  0  0  0  0  0  0  0
   36.1530   10.0970    5.5540 C   0  0  0  0  0  0  0  0  0  0  0  0
   36.5760    9.3090    4.4700 C   0  0  0  0  0  0  0  0  0  0  0  0
   35.9040    8.1030    4.1900 C   0  0  0  0  0  0  0  0  0  0  0  0
   34.6030   10.5310    7.4580 C   0  0  0  0  0  0  0  0  0  0  0  0
   33.9080   10.0240    8.3380 O   0  0  0  0  0  0  0  0  0  0  0  0
   34.9330   11.7160    7.4690 O   0  0  0  0  0  0  0  0  0  0  0  0
   31.7570    6.4720    9.2930 C   0  0  1  0  0  0  0  0  0  0  0  0
   30.6680    5.7910   10.1150 C   0  0  0  0  0  0  0  0  0  0  0  0
   29.8320    6.7810   10.9120 C   0  0  0  0  0  0  0  0  0  0  0  0
   29.7640    6.4570   12.3700 C   0  0  0  0  0  0  0  0  0  0  0  0
   28.9930    7.2400   13.1240 N   0  0  0  0  0  0  0  0  0  0  0  0
   30.3960    5.4130   12.8990 N   0  0  0  0  0  0  0  0  0  0  0  0
   33.1230    6.3520    9.9650 C   0  0  0  0  0  0  0  0  0  0  0  0
   33.2400    5.7910   11.0570 O   0  0  0  0  0  0  0  0  0  0  0  0
   34.1270    6.8980    9.2570 N   0  0  0  0  0  0  0  0  0  0  0  0
   35.4430    7.0550    9.8700 C   0  0  0  0  0  0  0  0  0  0  0  0
   36.5400    7.0550    8.8450 C   0  0  0  0  0  0  0  0  0  0  0  0
   36.6270    5.9520    7.9820 C   0  0  0  0  0  0  0  0  0  0  0  0
   37.5530    5.9430    6.9420 C   0  0  0  0  0  0  0  0  0  0  0  0
   38.4390    7.0220    6.7350 C   0  0  0  0  0  0  0  0  0  0  0  0
   38.3990    8.1110    7.6410 C   0  0  0  0  0  0  0  0  0  0  0  0
   37.4410    8.1340    8.6830 C   0  0  0  0  0  0  0  0  0  0  0  0
   39.3750    6.9840    5.5640 C   0  0  0  0  0  0  0  0  0  0  0  0
   38.9990    6.4670    4.3810 N   0  0  0  0  0  0  0  0  0  0  0  0
   40.6250    7.4380    5.6700 N   0  0  0  0  0  0  0  0  0  0  0  0
   32.6291    5.3693    7.6468 H   0  0  0  0  0  0  0  0  0  0  0  0
   31.6001    4.9524    5.6376 H   0  0  0  0  0  0  0  0  0  0  0  0
   28.9519    5.4473    6.2722 H   0  0  0  0  0  0  0  0  0  0  0  0
   29.7425    3.8458    3.8727 H   0  0  0  0  0  0  0  0  0  0  0  0
   28.2172    3.7522    4.7199 H   0  0  0  0  0  0  0  0  0  0  0  0
   29.6937    3.2764    5.5239 H   0  0  0  0  0  0  0  0  0  0  0  0
   28.6874    5.9997    3.4278 H   0  0  0  0  0  0  0  0  0  0  0  0
   29.3871    7.3075    4.3722 H   0  0  0  0  0  0  0  0  0  0  0  0
   26.7802    5.9295    4.9616 H   0  0  0  0  0  0  0  0  0  0  0  0
   26.9550    7.5230    4.2664 H   0  0  0  0  0  0  0  0  0  0  0  0
   27.4847    7.2213    5.9039 H   0  0  0  0  0  0  0  0  0  0  0  0
   31.5781    7.6337    5.1323 H   0  0  0  0  0  0  0  0  0  0  0  0
   34.9287    5.7038    4.3536 H   0  0  0  0  0  0  0  0  0  0  0  0
   33.8364    6.0280    5.7259 H   0  0  0  0  0  0  0  0  0  0  0  0
   33.6477    8.1572    6.6841 H   0  0  0  0  0  0  0  0  0  0  0  0
   36.6421   10.9808    5.7652 H   0  0  0  0  0  0  0  0  0  0  0  0
   37.3708    9.6108    3.8850 H   0  0  0  0  0  0  0  0  0  0  0  0
   36.1908    7.5306    3.3806 H   0  0  0  0  0  0  0  0  0  0  0  0
   35.4636   12.0610    6.7781 H   0  0  0  0  0  0  0  0  0  0  0  0
   31.4312    7.4898    9.2402 H   0  0  0  0  0  0  0  0  0  0  0  0
   31.1297    5.1064   10.7955 H   0  0  0  0  0  0  0  0  0  0  0  0
   30.0136    5.2887    9.4335 H   0  0  0  0  0  0  0  0  0  0  0  0
   28.8375    6.7812   10.5172 H   0  0  0  0  0  0  0  0  0  0  0  0
   30.3015    7.7382   10.8212 H   0  0  0  0  0  0  0  0  0  0  0  0
   28.5302    8.0099   12.7212 H   0  0  0  0  0  0  0  0  0  0  0  0
   30.9629    4.8417   12.3320 H   0  0  0  0  0  0  0  0  0  0  0  0
   30.2969    5.2116   13.8576 H   0  0  0  0  0  0  0  0  0  0  0  0
   33.9756    7.1907    8.3293 H   0  0  0  0  0  0  0  0  0  0  0  0
   35.6061    6.2465   10.5516 H   0  0  0  0  0  0  0  0  0  0  0  0
   35.4628    7.9966   10.3778 H   0  0  0  0  0  0  0  0  0  0  0  0
   36.0012    5.1429    8.1188 H   0  0  0  0  0  0  0  0  0  0  0  0
   37.5923    5.1293    6.3085 H   0  0  0  0  0  0  0  0  0  0  0  0
   39.0697    8.8889    7.5409 H   0  0  0  0  0  0  0  0  0  0  0  0
   37.3996    8.9399    9.3263 H   0  0  0  0  0  0  0  0  0  0  0  0
   38.0847    6.1216    4.2630 H   0  0  0  0  0  0  0  0  0  0  0  0
   40.9382    7.8238    6.5199 H   0  0  0  0  0  0  0  0  0  0  0  0
   41.2343    7.3872    4.8983 H   0  0  0  0  0  0  0  0  0  0  0  0
  2  1  2  0  0  0  0
  3  2  1  0  0  0  0
  3 42  1  0  0  0  0
  4  2  1  0  0  0  0
  4 43  1  6  0  0  0
  5  4  1  0  0  0  0
  5 44  1  1  0  0  0
  6  5  1  0  0  0  0
  6 45  1  0  0  0  0
  6 46  1  0  0  0  0
  6 47  1  0  0  0  0
  7  5  1  0  0  0  0
  7 48  1  0  0  0  0
  7 49  1  0  0  0  0
  8  7  1  0  0  0  0
  8 50  1  0  0  0  0
  8 51  1  0  0  0  0
  8 52  1  0  0  0  0
  9  4  1  0  0  0  0
  9 53  1  0  0  0  0
 10  9  1  0  0  0  0
 11 10  2  0  0  0  0
 12 10  2  0  0  0  0
 13 10  1  0  0  0  0
 13 54  1  0  0  0  0
 13 55  1  0  0  0  0
 14 13  1  0  0  0  0
 15 14  2  0  0  0  0
 15 56  1  0  0  0  0
 16 15  1  0  0  0  0
 17 16  2  0  0  0  0
 17 57  1  0  0  0  0
 18 17  1  0  0  0  0
 18 58  1  0  0  0  0
 19 18  2  0  0  0  0
 19 14  1  0  0  0  0
 19 59  1  0  0  0  0
 20 16  1  0  0  0  0
 21 20  2  0  0  0  0
 22 20  1  0  0  0  0
 22 60  1  0  0  0  0
 23  3  1  0  0  0  0
 23 61  1  6  0  0  0
 24 23  1  0  0  0  0
 24 62  1  0  0  0  0
 24 63  1  0  0  0  0
 25 24  1  0  0  0  0
 25 64  1  0  0  0  0
 25 65  1  0  0  0  0
 26 25  1  0  0  0  0
 27 26  2  0  0  0  0
 27 66  1  0  0  0  0
 28 26  1  0  0  0  0
 28 67  1  0  0  0  0
 28 68  1  0  0  0  0
 29 23  1  0  0  0  0
 30 29  2  0  0  0  0
 31 29  1  0  0  0  0
 31 69  1  0  0  0  0
 32 31  1  0  0  0  0
 32 70  1  0  0  0  0
 32 71  1  0  0  0  0
 33 32  1  0  0  0  0
 34 33  2  0  0  0  0
 34 72  1  0  0  0  0
 35 34  1  0  0  0  0
 35 73  1  0  0  0  0
 36 35  2  0  0  0  0
 37 36  1  0  0  0  0
 37 74  1  0  0  0  0
 38 33  1  0  0  0  0
 38 37  2  0  0  0  0
 38 75  1  0  0  0  0
 39 36  1  0  0  0  0
 40 39  2  0  0  0  0
 40 76  1  0  0  0  0
 41 39  1  0  0  0  0
 41 77  1  0  0  0  0
 41 78  1  0  0  0  0
M  END
$$$$
