BRL
 OpenBabel10252216183D

 44 46  0  0  0  0  0  0  0  0999 V2000
    6.4180   -2.7690   38.8290 C   0  0  0  0  0  0  0  0  0  0  0  0
    5.4080   -1.7700   39.1150 C   0  0  0  0  0  0  0  0  0  0  0  0
    4.4790   -1.9610   40.1780 C   0  0  0  0  0  0  0  0  0  0  0  0
    4.5340   -3.1890   40.9820 C   0  0  0  0  0  0  0  0  0  0  0  0
    5.5560   -4.1540   40.7190 C   0  0  0  0  0  0  0  0  0  0  0  0
    6.4820   -3.9550   39.6640 C   0  0  0  0  0  0  0  0  0  0  0  0
    3.6290   -3.5680   42.0150 O   0  0  0  0  0  0  0  0  0  0  0  0
    3.2450   -4.9820   42.1420 C   0  0  0  0  0  0  0  0  0  0  0  0
    3.3400   -5.3660   43.6430 C   0  0  0  0  0  0  0  0  0  0  0  0
    4.4410   -6.3790   43.9470 N   0  0  0  0  0  0  0  0  0  0  0  0
    4.0400   -7.6960   44.5730 C   0  0  0  0  0  0  0  0  0  0  0  0
    5.9470   -6.0880   43.6060 C   0  0  0  0  0  0  0  0  0  0  0  0
    6.6690   -6.9240   42.7200 N   0  0  0  0  0  0  0  0  0  0  0  0
    7.9840   -6.6690   42.4130 C   0  0  0  0  0  0  0  0  0  0  0  0
    8.6900   -5.5760   42.9800 C   0  0  0  0  0  0  0  0  0  0  0  0
    8.0200   -4.7000   43.8650 C   0  0  0  0  0  0  0  0  0  0  0  0
    6.6630   -4.9370   44.1890 C   0  0  0  0  0  0  0  0  0  0  0  0
    7.3780   -2.6010   37.6060 C   0  0  0  0  0  0  0  0  0  0  0  0
    7.9460   -4.0750   37.1130 C   0  0  2  0  0  0  0  0  0  0  0  0
    9.7650   -4.0680   37.0120 S   0  0  0  0  0  0  0  0  0  0  0  0
    9.7580   -4.5250   35.3000 C   0  0  0  0  0  0  0  0  0  0  0  0
   10.7940   -4.7060   34.6570 O   0  0  0  0  0  0  0  0  0  0  0  0
    8.5480   -4.7090   34.7610 N   0  0  0  0  0  0  0  0  0  0  0  0
    7.5310   -4.4740   35.6500 C   0  0  0  0  0  0  0  0  0  0  0  0
    6.3610   -4.6200   35.3180 O   0  0  0  0  0  0  0  0  0  0  0  0
    5.3582   -0.8556   38.5056 H   0  0  0  0  0  0  0  0  0  0  0  0
    3.7234   -1.1918   40.3958 H   0  0  0  0  0  0  0  0  0  0  0  0
    5.6243   -5.0588   41.3408 H   0  0  0  0  0  0  0  0  0  0  0  0
    7.2598   -4.7097   39.4755 H   0  0  0  0  0  0  0  0  0  0  0  0
    2.2146   -5.1236   41.7839 H   0  0  0  0  0  0  0  0  0  0  0  0
    3.9115   -5.6169   41.5398 H   0  0  0  0  0  0  0  0  0  0  0  0
    3.5378   -4.4529   44.2236 H   0  0  0  0  0  0  0  0  0  0  0  0
    2.3843   -5.8371   43.9162 H   0  0  0  0  0  0  0  0  0  0  0  0
    4.0678   -7.6046   45.6688 H   0  0  0  0  0  0  0  0  0  0  0  0
    3.0211   -7.9590   44.2527 H   0  0  0  0  0  0  0  0  0  0  0  0
    4.7395   -8.4823   44.2527 H   0  0  0  0  0  0  0  0  0  0  0  0
    8.5051   -7.3319   41.7066 H   0  0  0  0  0  0  0  0  0  0  0  0
    9.7493   -5.4118   42.7331 H   0  0  0  0  0  0  0  0  0  0  0  0
    8.5504   -3.8396   44.2990 H   0  0  0  0  0  0  0  0  0  0  0  0
    6.1391   -4.2595   44.8792 H   0  0  0  0  0  0  0  0  0  0  0  0
    6.8305   -2.1278   36.7776 H   0  0  0  0  0  0  0  0  0  0  0  0
    8.2295   -1.9716   37.9041 H   0  0  0  0  0  0  0  0  0  0  0  0
    7.5234   -4.7671   37.8562 H   0  0  0  0  0  0  0  0  0  0  0  0
    8.3964   -4.9962   33.7835 H   0  0  0  0  0  0  0  0  0  0  0  0
  2  1  2  0  0  0  0
  2 26  1  0  0  0  0
  3  2  1  0  0  0  0
  3 27  1  0  0  0  0
  4  3  2  0  0  0  0
  5  4  1  0  0  0  0
  5 28  1  0  0  0  0
  6  5  2  0  0  0  0
  6  1  1  0  0  0  0
  6 29  1  0  0  0  0
  7  4  1  0  0  0  0
  8  7  1  0  0  0  0
  8 30  1  0  0  0  0
  8 31  1  0  0  0  0
  9  8  1  0  0  0  0
  9 32  1  0  0  0  0
  9 33  1  0  0  0  0
 10  9  1  0  0  0  0
 11 10  1  0  0  0  0
 11 34  1  0  0  0  0
 11 35  1  0  0  0  0
 11 36  1  0  0  0  0
 12 10  1  0  0  0  0
 13 12  2  0  0  0  0
 14 13  1  0  0  0  0
 14 37  1  0  0  0  0
 15 14  2  0  0  0  0
 15 38  1  0  0  0  0
 16 15  1  0  0  0  0
 16 39  1  0  0  0  0
 17 12  1  0  0  0  0
 17 16  2  0  0  0  0
 17 40  1  0  0  0  0
 18  1  1  0  0  0  0
 18 41  1  0  0  0  0
 18 42  1  0  0  0  0
 19 18  1  0  0  0  0
 19 43  1  1  0  0  0
 20 19  1  0  0  0  0
 21 20  1  0  0  0  0
 22 21  2  0  0  0  0
 23 21  1  0  0  0  0
 23 44  1  0  0  0  0
 24 23  1  0  0  0  0
 24 19  1  0  0  0  0
 25 24  2  0  0  0  0
M  END
$$$$
