2D9
 OpenBabel09092213013D

 54 57  0  0  0  0  0  0  0  0999 V2000
    0.5740    7.9100   26.7210 N   0  0  0  0  0  0  0  0  0  0  0  0
   -0.0210    7.4920   25.4340 C   0  0  0  0  0  0  0  0  0  0  0  0
    0.7570    6.3020   24.7890 C   0  0  0  0  0  0  0  0  0  0  0  0
    1.2240    5.2430   25.7470 N   0  0  0  0  0  0  0  0  0  0  0  0
    1.8660    5.7470   26.9990 C   0  0  0  0  0  0  0  0  0  0  0  0
    1.8280    7.2770   27.1460 C   0  0  0  0  0  0  0  0  0  0  0  0
   -0.0330    8.9280   27.4970 C   0  0  0  0  0  0  0  0  0  0  0  0
   -0.0840    8.7920   28.8030 C   0  0  0  0  0  0  0  0  0  0  0  0
   -0.6920    9.8900   29.2770 N   0  0  0  0  0  0  0  0  0  0  0  0
   -1.0420   10.6910   28.3830 N   0  0  0  0  0  0  0  0  0  0  0  0
   -0.6520   10.2150   27.2000 C   0  0  0  0  0  0  0  0  0  0  0  0
   -0.8510   10.8520   25.9390 C   0  0  0  0  0  0  0  0  0  0  0  0
    0.2230   11.1120   25.1130 C   0  0  0  0  0  0  0  0  0  0  0  0
   -2.1130   11.2420   25.4790 C   0  0  0  0  0  0  0  0  0  0  0  0
    0.0620   11.7240   23.8590 C   0  0  0  0  0  0  0  0  0  0  0  0
    1.5050   12.0010   22.9350 Cl  0  0  0  0  0  0  0  0  0  0  0  0
   -1.2150   12.0990   23.3530 C   0  0  0  0  0  0  0  0  0  0  0  0
   -2.3130   11.8510   24.2260 C   0  0  0  0  0  0  0  0  0  0  0  0
   -1.3890   12.6820   22.0720 O   0  0  0  0  0  0  0  0  0  0  0  0
   -3.1900   11.0010   26.2520 O   0  0  0  0  0  0  0  0  0  0  0  0
    2.0150    4.1720   25.0290 C   0  0  0  0  0  0  0  0  0  0  0  0
    2.6740    4.5420   23.6540 C   0  0  0  0  0  0  0  0  0  0  0  0
    1.9990    4.2290   22.4750 C   0  0  0  0  0  0  0  0  0  0  0  0
    2.5450    4.5220   21.2080 C   0  0  0  0  0  0  0  0  0  0  0  0
    3.7950    5.1330   21.0460 C   0  0  0  0  0  0  0  0  0  0  0  0
    4.5010    5.4260   22.2340 C   0  0  0  0  0  0  0  0  0  0  0  0
    3.9490    5.1310   23.5120 C   0  0  0  0  0  0  0  0  0  0  0  0
    4.3860    5.4840   19.3310 S   0  0  0  0  0  0  0  0  0  0  0  0
    5.2290    4.3550   18.8140 O   0  0  0  0  0  0  0  0  0  0  0  0
    5.0500    6.8340   19.1320 O   0  0  0  0  0  0  0  0  0  0  0  0
    3.0770    5.4890   18.1010 C   0  0  0  0  0  0  0  0  0  0  0  0
   -1.0623    7.1829   25.6079 H   0  0  0  0  0  0  0  0  0  0  0  0
    0.0304    8.3460   24.7426 H   0  0  0  0  0  0  0  0  0  0  0  0
    0.0957    5.8244   24.0510 H   0  0  0  0  0  0  0  0  0  0  0  0
    1.6673    6.7370   24.3505 H   0  0  0  0  0  0  0  0  0  0  0  0
    1.3433    5.3033   27.8592 H   0  0  0  0  0  0  0  0  0  0  0  0
    2.9260    5.4567   26.9535 H   0  0  0  0  0  0  0  0  0  0  0  0
    1.9919    7.5222   28.2057 H   0  0  0  0  0  0  0  0  0  0  0  0
    2.6113    7.6693   26.4807 H   0  0  0  0  0  0  0  0  0  0  0  0
    0.2969    7.9445   29.3918 H   0  0  0  0  0  0  0  0  0  0  0  0
   -1.5490   11.5745   28.5355 H   0  0  0  0  0  0  0  0  0  0  0  0
    1.2335   10.8323   25.4457 H   0  0  0  0  0  0  0  0  0  0  0  0
   -3.3288   12.1388   23.9173 H   0  0  0  0  0  0  0  0  0  0  0  0
   -2.2955   12.9279   21.7590 H   0  0  0  0  0  0  0  0  0  0  0  0
   -4.0913   11.2699   25.9430 H   0  0  0  0  0  0  0  0  0  0  0  0
    2.8230    3.8538   25.7042 H   0  0  0  0  0  0  0  0  0  0  0  0
    1.2711    3.4012   24.7792 H   0  0  0  0  0  0  0  0  0  0  0  0
    1.0150    3.7409   22.5344 H   0  0  0  0  0  0  0  0  0  0  0  0
    1.9656    4.2600   20.3104 H   0  0  0  0  0  0  0  0  0  0  0  0
    5.4959    5.8908   22.1700 H   0  0  0  0  0  0  0  0  0  0  0  0
    4.5319    5.3685   24.4141 H   0  0  0  0  0  0  0  0  0  0  0  0
    2.0996    5.4927   18.6057 H   0  0  0  0  0  0  0  0  0  0  0  0
    3.1683    6.3868   17.4720 H   0  0  0  0  0  0  0  0  0  0  0  0
    3.1614    4.5905   17.4720 H   0  0  0  0  0  0  0  0  0  0  0  0
  2  1  1  0  0  0  0
  2 32  1  0  0  0  0
  2 33  1  0  0  0  0
  3  2  1  0  0  0  0
  3 34  1  0  0  0  0
  3 35  1  0  0  0  0
  4  3  1  0  0  0  0
  5  4  1  0  0  0  0
  5 36  1  0  0  0  0
  5 37  1  0  0  0  0
  6  5  1  0  0  0  0
  6  1  1  0  0  0  0
  6 38  1  0  0  0  0
  6 39  1  0  0  0  0
  7  1  1  0  0  0  0
  8  7  1  0  0  0  0
  8 40  1  0  0  0  0
  9  8  2  0  0  0  0
 10  9  1  0  0  0  0
 10 41  1  0  0  0  0
 11 10  1  0  0  0  0
 11  7  2  0  0  0  0
 12 11  1  0  0  0  0
 13 12  2  0  0  0  0
 13 42  1  0  0  0  0
 14 12  1  0  0  0  0
 15 13  1  0  0  0  0
 16 15  1  0  0  0  0
 17 15  2  0  0  0  0
 18 17  1  0  0  0  0
 18 14  2  0  0  0  0
 18 43  1  0  0  0  0
 19 17  1  0  0  0  0
 19 44  1  0  0  0  0
 20 14  1  0  0  0  0
 20 45  1  0  0  0  0
 21  4  1  0  0  0  0
 21 46  1  0  0  0  0
 21 47  1  0  0  0  0
 22 21  1  0  0  0  0
 23 22  2  0  0  0  0
 23 48  1  0  0  0  0
 24 23  1  0  0  0  0
 24 49  1  0  0  0  0
 25 24  2  0  0  0  0
 26 25  1  0  0  0  0
 26 50  1  0  0  0  0
 27 26  2  0  0  0  0
 27 22  1  0  0  0  0
 27 51  1  0  0  0  0
 28 25  1  0  0  0  0
 29 28  2  0  0  0  0
 30 28  2  0  0  0  0
 31 28  1  0  0  0  0
 31 52  1  0  0  0  0
 31 53  1  0  0  0  0
 31 54  1  0  0  0  0
M  END
$$$$
