GWB
 OpenBabel06142216323D

 37 39  0  0  0  0  0  0  0  0999 V2000
    6.0280  -39.4700   15.6050 N   0  0  0  0  0  0  0  0  0  0  0  0
    5.2060  -38.9100   16.5570 C   0  0  0  0  0  0  0  0  0  0  0  0
    8.1050  -39.8910   14.7770 O   0  0  0  0  0  0  0  0  0  0  0  0
    5.7840  -38.1840   17.6670 C   0  0  0  0  0  0  0  0  0  0  0  0
    7.1850  -38.0330   17.7590 C   0  0  0  0  0  0  0  0  0  0  0  0
    8.0330  -38.5850   16.7960 C   0  0  0  0  0  0  0  0  0  0  0  0
    7.4250  -39.3540   15.6590 C   0  0  0  0  0  0  0  0  0  0  0  0
    4.9080  -37.5780   18.6110 C   0  0  0  0  0  0  0  0  0  0  0  0
    3.5040  -37.6700   18.4590 C   0  0  0  0  0  0  0  0  0  0  0  0
    2.9420  -38.3800   17.3600 C   0  0  0  0  0  0  0  0  0  0  0  0
    3.7930  -39.0030   16.4120 C   0  0  0  0  0  0  0  0  0  0  0  0
    2.6840  -37.0530   19.3770 F   0  0  0  0  0  0  0  0  0  0  0  0
    7.7570  -37.2820   18.8030 O   0  0  0  0  0  0  0  0  0  0  0  0
    8.0170  -35.8920   18.5240 C   0  0  0  0  0  0  0  0  0  0  0  0
    8.2370  -34.7910   18.2770 C   0  0  0  0  0  0  0  0  0  0  0  0
    8.5630  -33.1790   17.9200 C   0  0  0  0  0  0  0  0  0  0  0  0
    8.1260  -32.4540   19.1230 C   0  0  0  0  0  0  0  0  0  0  0  0
    9.5840  -32.7740   18.8940 C   0  0  0  0  0  0  0  0  0  0  0  0
    9.5520  -38.2970   16.9010 C   0  0  0  0  0  0  0  0  0  0  0  0
   10.1210  -37.4400   15.7630 C   0  0  0  0  0  0  0  0  0  0  0  0
   10.3890  -39.5550   17.1520 C   0  0  0  0  0  0  0  0  0  0  0  0
    5.6024  -39.9923   14.8260 H   0  0  0  0  0  0  0  0  0  0  0  0
    5.3272  -37.0317   19.4688 H   0  0  0  0  0  0  0  0  0  0  0  0
    1.8498  -38.4451   17.2466 H   0  0  0  0  0  0  0  0  0  0  0  0
    3.3617  -39.5575   15.5655 H   0  0  0  0  0  0  0  0  0  0  0  0
    8.4318  -33.0578   16.8346 H   0  0  0  0  0  0  0  0  0  0  0  0
    7.7687  -31.4167   19.0440 H   0  0  0  0  0  0  0  0  0  0  0  0
    7.4003  -32.6384   19.9288 H   0  0  0  0  0  0  0  0  0  0  0  0
   10.0872  -33.5309   19.5136 H   0  0  0  0  0  0  0  0  0  0  0  0
   10.5162  -32.1914   18.8542 H   0  0  0  0  0  0  0  0  0  0  0  0
    9.6397  -37.6715   17.8016 H   0  0  0  0  0  0  0  0  0  0  0  0
   10.6826  -36.5942   16.1865 H   0  0  0  0  0  0  0  0  0  0  0  0
   10.7925  -38.0524   15.1433 H   0  0  0  0  0  0  0  0  0  0  0  0
    9.2960  -37.0588   15.1433 H   0  0  0  0  0  0  0  0  0  0  0  0
   10.4952  -39.7147   18.2352 H   0  0  0  0  0  0  0  0  0  0  0  0
    9.8887  -40.4244   16.7005 H   0  0  0  0  0  0  0  0  0  0  0  0
   11.3842  -39.4294   16.7005 H   0  0  0  0  0  0  0  0  0  0  0  0
  1 22  1  0  0  0  0
  2  1  1  0  0  0  0
  4  2  2  0  0  0  0
  5  4  1  0  0  0  0
  6  5  2  0  0  0  0
  7  3  2  0  0  0  0
  7  1  1  0  0  0  0
  7  6  1  0  0  0  0
  8  4  1  0  0  0  0
  8 23  1  0  0  0  0
  9  8  2  0  0  0  0
 10  9  1  0  0  0  0
 10 24  1  0  0  0  0
 11 10  2  0  0  0  0
 11  2  1  0  0  0  0
 11 25  1  0  0  0  0
 12  9  1  0  0  0  0
 13  5  1  0  0  0  0
 14 13  1  0  0  0  0
 15 14  3  0  0  0  0
 16 15  1  0  0  0  0
 16 26  1  0  0  0  0
 17 16  1  0  0  0  0
 17 27  1  0  0  0  0
 17 28  1  0  0  0  0
 18 16  1  0  0  0  0
 18 17  1  0  0  0  0
 18 29  1  0  0  0  0
 18 30  1  0  0  0  0
 19  6  1  0  0  0  0
 19 31  1  0  0  0  0
 20 19  1  0  0  0  0
 20 32  1  0  0  0  0
 20 33  1  0  0  0  0
 20 34  1  0  0  0  0
 21 19  1  0  0  0  0
 21 35  1  0  0  0  0
 21 36  1  0  0  0  0
 21 37  1  0  0  0  0
M  END
$$$$
