163
 OpenBabel11082215093D

 65 67  0  0  0  0  0  0  0  0999 V2000
   14.3580  -16.1290   20.3060 O   0  0  0  0  0  0  0  0  0  0  0  0
   16.2360  -16.0620   19.0690 N   0  0  0  0  0  0  0  0  0  0  0  0
   16.5350  -17.5100   18.9850 C   0  0  0  0  0  0  0  0  0  0  0  0
   17.6640  -17.6750   17.9970 C   0  0  0  0  0  0  0  0  0  0  0  0
   18.1040  -16.5070   17.6170 C   0  0  0  0  0  0  0  0  0  0  0  0
   17.3280  -15.4140   18.3020 C   0  0  0  0  0  0  0  0  0  0  0  0
   15.1820  -15.4550   19.7140 C   0  0  0  0  0  0  0  0  0  0  0  0
   16.8980  -18.0660   20.3510 C   0  0  0  0  0  0  0  0  0  0  0  0
   16.7420  -19.2510   20.5950 O   0  0  0  0  0  0  0  0  0  0  0  0
   17.4090  -17.2170   21.2830 N   0  0  0  0  0  0  0  0  0  0  0  0
   17.8010  -17.6750   22.6280 C   0  0  0  0  0  0  0  0  0  0  0  0
   18.9090  -16.7800   23.1340 C   0  0  0  0  0  0  0  0  0  0  0  0
   19.8610  -17.1190   24.0410 N   0  0  0  0  0  0  0  0  0  0  0  0
   20.6890  -16.0220   24.2380 C   0  0  0  0  0  0  0  0  0  0  0  0
   19.9900  -18.4400   24.7120 C   0  0  0  0  0  0  0  0  0  0  0  0
   20.2200  -15.0210   23.4350 C   0  0  0  0  0  0  0  0  0  0  0  0
   19.1090  -15.5100   22.7500 C   0  0  0  0  0  0  0  0  0  0  0  0
   21.8720  -15.9310   25.1440 C   0  0  0  0  0  0  0  0  0  0  0  0
   23.0440  -16.4440   24.7670 N   0  0  0  0  0  0  0  0  0  0  0  0
   21.7490  -15.3300   26.3230 N   0  0  0  0  0  0  0  0  0  0  0  0
   15.0270  -13.9430   19.7000 C   0  0  2  0  0  0  0  0  0  0  0  0
   14.5560  -13.4860   21.0160 N   0  0  0  0  0  0  0  0  0  0  0  0
   13.8140  -12.2250   21.1460 C   0  0  0  0  0  0  0  0  0  0  0  0
   12.4310  -12.4960   21.6870 C   0  0  0  0  0  0  0  0  0  0  0  0
   11.4940  -12.6700   20.9230 O   0  0  0  0  0  0  0  0  0  0  0  0
   12.2470  -12.5380   22.8920 O   0  0  0  0  0  0  0  0  0  0  0  0
   14.0110  -13.5150   18.6170 C   0  0  0  0  0  0  0  0  0  0  0  0
   14.6670  -12.5780   17.5870 C   0  0  0  0  0  0  0  0  0  0  0  0
   15.9930  -12.0270   18.1580 C   0  0  0  0  0  0  0  0  0  0  0  0
   16.6640  -11.0820   17.1300 C   0  0  0  0  0  0  0  0  0  0  0  0
   16.9250  -11.8310   15.7990 C   0  0  0  0  0  0  0  0  0  0  0  0
   15.6020  -12.4060   15.2370 C   0  0  0  0  0  0  0  0  0  0  0  0
   14.9450  -13.3490   16.2730 C   0  0  0  0  0  0  0  0  0  0  0  0
   18.0588  -18.6405   17.6478 H   0  0  0  0  0  0  0  0  0  0  0  0
   18.9227  -16.3446   16.9005 H   0  0  0  0  0  0  0  0  0  0  0  0
   17.5327  -14.3348   18.2445 H   0  0  0  0  0  0  0  0  0  0  0  0
   17.5257  -16.2226   21.0411 H   0  0  0  0  0  0  0  0  0  0  0  0
   16.9372  -17.6164   23.3066 H   0  0  0  0  0  0  0  0  0  0  0  0
   18.1480  -18.7179   22.5853 H   0  0  0  0  0  0  0  0  0  0  0  0
   19.9763  -18.3000   25.8030 H   0  0  0  0  0  0  0  0  0  0  0  0
   19.1506  -19.0858   24.4147 H   0  0  0  0  0  0  0  0  0  0  0  0
   20.9384  -18.9112   24.4147 H   0  0  0  0  0  0  0  0  0  0  0  0
   20.6436  -14.0098   23.3452 H   0  0  0  0  0  0  0  0  0  0  0  0
   18.5021  -14.9521   22.0217 H   0  0  0  0  0  0  0  0  0  0  0  0
   23.8593  -16.3804   25.3932 H   0  0  0  0  0  0  0  0  0  0  0  0
   22.5603  -15.2630   26.9540 H   0  0  0  0  0  0  0  0  0  0  0  0
   20.8424  -14.9313   26.6057 H   0  0  0  0  0  0  0  0  0  0  0  0
   16.0031  -13.4893   19.4734 H   0  0  0  0  0  0  0  0  0  0  0  0
   13.9437  -14.2279   21.3841 H   0  0  0  0  0  0  0  0  0  0  0  0
   14.3503  -11.5556   21.8347 H   0  0  0  0  0  0  0  0  0  0  0  0
   13.7295  -11.7509   20.1570 H   0  0  0  0  0  0  0  0  0  0  0  0
   11.3406  -12.7156   23.2484 H   0  0  0  0  0  0  0  0  0  0  0  0
   13.6360  -14.4111   18.1009 H   0  0  0  0  0  0  0  0  0  0  0  0
   13.1841  -12.9774   19.1041 H   0  0  0  0  0  0  0  0  0  0  0  0
   13.9850  -11.7414   17.3748 H   0  0  0  0  0  0  0  0  0  0  0  0
   15.7867  -11.4698   19.0837 H   0  0  0  0  0  0  0  0  0  0  0  0
   16.6704  -12.8674   18.3698 H   0  0  0  0  0  0  0  0  0  0  0  0
   16.0019  -10.2245   16.9397 H   0  0  0  0  0  0  0  0  0  0  0  0
   17.6244  -10.7342   17.5383 H   0  0  0  0  0  0  0  0  0  0  0  0
   17.3562  -11.1316   15.0677 H   0  0  0  0  0  0  0  0  0  0  0  0
   17.6240  -12.6595   15.9860 H   0  0  0  0  0  0  0  0  0  0  0  0
   14.9134  -11.5785   15.0112 H   0  0  0  0  0  0  0  0  0  0  0  0
   15.8191  -12.9753   14.3212 H   0  0  0  0  0  0  0  0  0  0  0  0
   13.9969  -13.7321   15.8675 H   0  0  0  0  0  0  0  0  0  0  0  0
   15.6260  -14.1871   16.4824 H   0  0  0  0  0  0  0  0  0  0  0  0
  3  2  1  0  0  0  0
  4  3  2  0  0  0  0
  4 34  1  0  0  0  0
  5  4  1  0  0  0  0
  5 35  1  0  0  0  0
  6  2  1  0  0  0  0
  6  5  2  0  0  0  0
  6 36  1  0  0  0  0
  7  2  1  0  0  0  0
  7  1  2  0  0  0  0
  8  3  1  0  0  0  0
  9  8  2  0  0  0  0
 10  8  1  0  0  0  0
 10 37  1  0  0  0  0
 11 10  1  0  0  0  0
 11 38  1  0  0  0  0
 11 39  1  0  0  0  0
 12 11  1  0  0  0  0
 13 12  1  0  0  0  0
 14 13  1  0  0  0  0
 15 13  1  0  0  0  0
 15 40  1  0  0  0  0
 15 41  1  0  0  0  0
 15 42  1  0  0  0  0
 16 14  2  0  0  0  0
 16 43  1  0  0  0  0
 17 12  2  0  0  0  0
 17 16  1  0  0  0  0
 17 44  1  0  0  0  0
 18 14  1  0  0  0  0
 19 18  2  0  0  0  0
 19 45  1  0  0  0  0
 20 18  1  0  0  0  0
 20 46  1  0  0  0  0
 20 47  1  0  0  0  0
 21  7  1  0  0  0  0
 21 48  1  6  0  0  0
 22 21  1  0  0  0  0
 22 49  1  0  0  0  0
 23 22  1  0  0  0  0
 23 50  1  0  0  0  0
 23 51  1  0  0  0  0
 24 23  1  0  0  0  0
 25 24  2  0  0  0  0
 26 24  1  0  0  0  0
 26 52  1  0  0  0  0
 27 21  1  0  0  0  0
 27 53  1  0  0  0  0
 27 54  1  0  0  0  0
 28 27  1  0  0  0  0
 28 55  1  0  0  0  0
 29 28  1  0  0  0  0
 29 56  1  0  0  0  0
 29 57  1  0  0  0  0
 30 29  1  0  0  0  0
 30 58  1  0  0  0  0
 30 59  1  0  0  0  0
 31 30  1  0  0  0  0
 31 60  1  0  0  0  0
 31 61  1  0  0  0  0
 32 31  1  0  0  0  0
 32 62  1  0  0  0  0
 32 63  1  0  0  0  0
 33 32  1  0  0  0  0
 33 28  1  0  0  0  0
 33 64  1  0  0  0  0
 33 65  1  0  0  0  0
M  END
$$$$
