QUE
 OpenBabel10052215493D

 32 34  0  0  0  0  0  0  0  0999 V2000
  169.0430 -121.8700    2.6480 C   0  0  0  0  0  0  0  0  0  0  0  0
  169.2830 -122.4050    1.3640 C   0  0  0  0  0  0  0  0  0  0  0  0
  169.1290 -121.6200    0.1590 C   0  0  0  0  0  0  0  0  0  0  0  0
  168.7310 -120.2760    0.2790 C   0  0  0  0  0  0  0  0  0  0  0  0
  168.4820 -119.7140    1.5950 C   0  0  0  0  0  0  0  0  0  0  0  0
  168.6350 -120.4940    2.7890 C   0  0  0  0  0  0  0  0  0  0  0  0
  169.3800 -122.1270   -1.2310 C   0  0  0  0  0  0  0  0  0  0  0  0
  169.2150 -121.3130   -2.4720 C   0  0  0  0  0  0  0  0  0  0  0  0
  168.9670 -119.9550   -2.2290 C   0  0  0  0  0  0  0  0  0  0  0  0
  168.5890 -119.5350   -0.9270 O   0  0  0  0  0  0  0  0  0  0  0  0
  169.7870 -123.3150   -1.3550 O   0  0  0  0  0  0  0  0  0  0  0  0
  169.5910 -121.7880   -3.7010 O   0  0  0  0  0  0  0  0  0  0  0  0
  168.3980 -119.9620    4.0490 O   0  0  0  0  0  0  0  0  0  0  0  0
  169.6820 -123.7130    1.1420 O   0  0  0  0  0  0  0  0  0  0  0  0
  168.8660 -118.8890   -3.3650 C   0  0  0  0  0  0  0  0  0  0  0  0
  169.5100 -119.0690   -4.6040 C   0  0  0  0  0  0  0  0  0  0  0  0
  169.3960 -118.0630   -5.6130 C   0  0  0  0  0  0  0  0  0  0  0  0
  168.6550 -116.8790   -5.4090 C   0  0  0  0  0  0  0  0  0  0  0  0
  167.9920 -116.6480   -4.1710 C   0  0  0  0  0  0  0  0  0  0  0  0
  168.5930 -115.9610   -6.4340 O   0  0  0  0  0  0  0  0  0  0  0  0
  168.1320 -117.6750   -3.1910 C   0  0  0  0  0  0  0  0  0  0  0  0
  167.3020 -115.5590   -3.9620 O   0  0  0  0  0  0  0  0  0  0  0  0
  169.1670 -122.5018    3.5399 H   0  0  0  0  0  0  0  0  0  0  0  0
  168.1680 -118.6631    1.6781 H   0  0  0  0  0  0  0  0  0  0  0  0
  169.4699 -121.2262   -4.5071 H   0  0  0  0  0  0  0  0  0  0  0  0
  168.5125 -120.5265    4.8542 H   0  0  0  0  0  0  0  0  0  0  0  0
  169.8358 -124.0336    0.2180 H   0  0  0  0  0  0  0  0  0  0  0  0
  170.0978 -119.9790   -4.7945 H   0  0  0  0  0  0  0  0  0  0  0  0
  169.9012 -118.2162   -6.5780 H   0  0  0  0  0  0  0  0  0  0  0  0
  168.0801 -115.1224   -6.3171 H   0  0  0  0  0  0  0  0  0  0  0  0
  167.6344 -117.5200   -2.2223 H   0  0  0  0  0  0  0  0  0  0  0  0
  166.8489 -115.4192   -3.0929 H   0  0  0  0  0  0  0  0  0  0  0  0
  1 23  1  0  0  0  0
  2  1  2  0  0  0  0
  3  2  1  0  0  0  0
  4  3  2  0  0  0  0
  5  4  1  0  0  0  0
  5 24  1  0  0  0  0
  6  5  2  0  0  0  0
  6  1  1  0  0  0  0
  7  3  1  0  0  0  0
  8  7  1  0  0  0  0
  9  8  2  0  0  0  0
 10  4  1  0  0  0  0
 10  9  1  0  0  0  0
 11  7  2  0  0  0  0
 12  8  1  0  0  0  0
 12 25  1  0  0  0  0
 13  6  1  0  0  0  0
 13 26  1  0  0  0  0
 14  2  1  0  0  0  0
 14 27  1  0  0  0  0
 15  9  1  0  0  0  0
 16 15  2  0  0  0  0
 16 28  1  0  0  0  0
 17 16  1  0  0  0  0
 17 29  1  0  0  0  0
 18 17  2  0  0  0  0
 19 18  1  0  0  0  0
 20 18  1  0  0  0  0
 20 30  1  0  0  0  0
 21 19  2  0  0  0  0
 21 15  1  0  0  0  0
 21 31  1  0  0  0  0
 22 19  1  0  0  0  0
 22 32  1  0  0  0  0
M  END
$$$$
