596
 OpenBabel10052215513D

 51 55  0  0  0  0  0  0  0  0999 V2000
  170.7900 -123.1600    4.3840 C   0  0  0  0  0  0  0  0  0  0  0  0
  170.4170 -123.3890    3.0550 C   0  0  0  0  0  0  0  0  0  0  0  0
  170.1460 -124.6700    2.5830 C   0  0  0  0  0  0  0  0  0  0  0  0
  170.2530 -125.7820    3.3860 C   0  0  0  0  0  0  0  0  0  0  0  0
  170.6190 -125.5680    4.7080 C   0  0  0  0  0  0  0  0  0  0  0  0
  170.8930 -124.2900    5.2100 C   0  0  0  0  0  0  0  0  0  0  0  0
  170.2540 -122.3820    2.0700 O   0  0  0  0  0  0  0  0  0  0  0  0
  169.8920 -122.9850    0.9020 C   0  0  0  0  0  0  0  0  0  0  0  0
  169.8040 -124.4260    1.1590 C   0  0  0  0  0  0  0  0  0  0  0  0
  169.4730 -125.2830    0.2500 O   0  0  0  0  0  0  0  0  0  0  0  0
  169.6360 -122.2840   -0.3700 C   0  0  0  0  0  0  0  0  0  0  0  0
  169.1520 -120.9080   -0.6290 C   0  0  0  0  0  0  0  0  0  0  0  0
  168.3740 -120.6970   -1.7050 N   0  0  0  0  0  0  0  0  0  0  0  0
  168.0620 -119.3330   -1.6780 N   0  0  0  0  0  0  0  0  0  0  0  0
  168.6530 -118.7220   -0.6260 C   0  0  0  0  0  0  0  0  0  0  0  0
  169.3760 -119.6540    0.1020 C   0  0  0  0  0  0  0  0  0  0  0  0
  168.6280 -117.3990   -0.1980 C   0  0  0  0  0  0  0  0  0  0  0  0
  170.0710 -119.3300    1.2590 C   0  0  0  0  0  0  0  0  0  0  0  0
  170.0460 -118.0100    1.6830 C   0  0  0  0  0  0  0  0  0  0  0  0
  169.3270 -117.0510    0.9600 C   0  0  0  0  0  0  0  0  0  0  0  0
  171.0530 -121.7370    4.8970 C   0  0  0  0  0  0  0  0  0  0  0  0
  169.9630 -121.2150    5.7710 N   0  0  0  0  0  0  0  0  0  0  0  0
  169.1510 -120.1970    5.0820 C   0  0  0  0  0  0  0  0  0  0  0  0
  167.9860 -119.7110    5.9650 C   0  0  0  0  0  0  0  0  0  0  0  0
  168.4370 -119.3750    7.3200 N   0  0  0  0  0  0  0  0  0  0  0  0
  169.3270 -120.3170    7.9670 C   0  0  0  0  0  0  0  0  0  0  0  0
  170.4830 -120.6830    7.0400 C   0  0  0  0  0  0  0  0  0  0  0  0
  171.2590 -124.1490    6.5300 O   0  0  0  0  0  0  0  0  0  0  0  0
  170.3730 -124.4230    7.6400 C   0  0  0  0  0  0  0  0  0  0  0  0
  170.0578 -126.7929    2.9988 H   0  0  0  0  0  0  0  0  0  0  0  0
  170.6964 -126.4321    5.3842 H   0  0  0  0  0  0  0  0  0  0  0  0
  169.8370 -122.8794   -1.2728 H   0  0  0  0  0  0  0  0  0  0  0  0
  167.4622 -118.8577   -2.3674 H   0  0  0  0  0  0  0  0  0  0  0  0
  168.0670 -116.6393   -0.7621 H   0  0  0  0  0  0  0  0  0  0  0  0
  170.6242 -120.0963    1.8219 H   0  0  0  0  0  0  0  0  0  0  0  0
  170.5931 -117.7155    2.5907 H   0  0  0  0  0  0  0  0  0  0  0  0
  169.3123 -116.0079    1.3090 H   0  0  0  0  0  0  0  0  0  0  0  0
  171.9905 -121.7408    5.4724 H   0  0  0  0  0  0  0  0  0  0  0  0
  171.1096 -121.0785    4.0177 H   0  0  0  0  0  0  0  0  0  0  0  0
  169.7916 -119.3386    4.8312 H   0  0  0  0  0  0  0  0  0  0  0  0
  168.7290 -120.6498    4.1727 H   0  0  0  0  0  0  0  0  0  0  0  0
  167.5393 -118.8168    5.5058 H   0  0  0  0  0  0  0  0  0  0  0  0
  167.2495 -120.5246    6.0401 H   0  0  0  0  0  0  0  0  0  0  0  0
  168.9255 -118.4696    7.2698 H   0  0  0  0  0  0  0  0  0  0  0  0
  169.7288 -119.8635    8.8851 H   0  0  0  0  0  0  0  0  0  0  0  0
  168.7633 -121.2297    8.2103 H   0  0  0  0  0  0  0  0  0  0  0  0
  171.0862 -119.7855    6.8385 H   0  0  0  0  0  0  0  0  0  0  0  0
  171.1047 -121.4501    7.5247 H   0  0  0  0  0  0  0  0  0  0  0  0
  170.9087 -124.2573    8.5863 H   0  0  0  0  0  0  0  0  0  0  0  0
  169.5029 -123.7520    7.5889 H   0  0  0  0  0  0  0  0  0  0  0  0
  170.0336 -125.4681    7.5889 H   0  0  0  0  0  0  0  0  0  0  0  0
  2  1  2  0  0  0  0
  3  2  1  0  0  0  0
  4  3  2  0  0  0  0
  4 30  1  0  0  0  0
  5  4  1  0  0  0  0
  5 31  1  0  0  0  0
  6  5  2  0  0  0  0
  6  1  1  0  0  0  0
  7  2  1  0  0  0  0
  8  7  1  0  0  0  0
  9  8  1  0  0  0  0
  9  3  1  0  0  0  0
 10  9  2  0  0  0  0
 11  8  2  3  0  0  0
 11 32  1  0  0  0  0
 12 11  1  0  0  0  0
 13 12  2  0  0  0  0
 14 13  1  0  0  0  0
 14 33  1  0  0  0  0
 15 14  1  0  0  0  0
 16 15  2  0  0  0  0
 16 12  1  0  0  0  0
 17 15  1  0  0  0  0
 17 34  1  0  0  0  0
 18 16  1  0  0  0  0
 18 35  1  0  0  0  0
 19 18  2  0  0  0  0
 19 36  1  0  0  0  0
 20 17  2  0  0  0  0
 20 19  1  0  0  0  0
 20 37  1  0  0  0  0
 21  1  1  0  0  0  0
 21 38  1  0  0  0  0
 21 39  1  0  0  0  0
 22 21  1  0  0  0  0
 23 22  1  0  0  0  0
 23 40  1  0  0  0  0
 23 41  1  0  0  0  0
 24 23  1  0  0  0  0
 24 42  1  0  0  0  0
 24 43  1  0  0  0  0
 25 24  1  0  0  0  0
 25 44  1  0  0  0  0
 26 25  1  0  0  0  0
 26 45  1  0  0  0  0
 26 46  1  0  0  0  0
 27 26  1  0  0  0  0
 27 22  1  0  0  0  0
 27 47  1  0  0  0  0
 27 48  1  0  0  0  0
 28  6  1  0  0  0  0
 29 28  1  0  0  0  0
 29 49  1  0  0  0  0
 29 50  1  0  0  0  0
 29 51  1  0  0  0  0
M  END
$$$$
