134
 OpenBabel11112216403D

 52 55  0  0  0  0  0  0  0  0999 V2000
    9.8040    7.6190   22.9220 C   0  0  0  0  0  0  0  0  0  0  0  0
    6.1770    8.3730   23.4230 C   0  0  0  0  0  0  0  0  0  0  0  0
    6.2300    9.6900   22.9660 O   0  0  0  0  0  0  0  0  0  0  0  0
    5.0320    7.8170   23.8720 C   0  0  0  0  0  0  0  0  0  0  0  0
    4.9010    6.5490   24.3420 C   0  0  0  0  0  0  0  0  0  0  0  0
    6.0110    5.7580   24.3230 C   0  0  0  0  0  0  0  0  0  0  0  0
    7.2230    6.2700   23.8690 C   0  0  0  0  0  0  0  0  0  0  0  0
    7.3310    7.6010   23.4080 C   0  0  0  0  0  0  0  0  0  0  0  0
   12.6700    9.3880   21.3590 C   0  0  0  0  0  0  0  0  0  0  0  0
   11.8580   10.5340   21.0230 C   0  0  0  0  0  0  0  0  0  0  0  0
   10.4880   10.5720   21.3290 C   0  0  0  0  0  0  0  0  0  0  0  0
    8.7160    9.2650   22.3710 N   0  0  0  0  0  0  0  0  0  0  0  0
    9.9490    9.4740   21.9330 C   0  0  0  0  0  0  0  0  0  0  0  0
   10.6630    8.4060   22.3190 C   0  0  0  0  0  0  0  0  0  0  0  0
   12.0020    8.3270   22.0390 C   0  0  0  0  0  0  0  0  0  0  0  0
    8.5630    8.0760   22.9340 C   0  0  0  0  0  0  0  0  0  0  0  0
   12.4390   11.6190   20.3700 F   0  0  0  0  0  0  0  0  0  0  0  0
    3.8690    8.5940   23.8450 O   0  0  0  0  0  0  0  0  0  0  0  0
    2.9600    9.4100   24.6930 C   0  0  1  0  0  0  0  0  0  0  0  0
    3.7860    9.2230   25.9140 C   0  0  0  0  0  0  0  0  0  0  0  0
    2.8890    9.6480   27.0470 C   0  0  0  0  0  0  0  0  0  0  0  0
    1.9020   10.7330   26.4760 C   0  0  0  0  0  0  0  0  0  0  0  0
    2.4720   11.6180   25.3220 C   0  0  0  0  0  0  0  0  0  0  0  0
    2.9900   10.7830   24.1480 C   0  0  2  0  0  0  0  0  0  0  0  0
    2.0570   10.9770   22.9800 C   0  0  0  0  0  0  0  0  0  0  0  0
   14.0450    9.3050   21.0870 C   0  0  0  0  0  0  0  0  0  0  0  0
   14.4510    8.7320   19.9790 N   0  0  0  0  0  0  0  0  0  0  0  0
   14.9160    9.8100   21.9460 N   0  0  0  0  0  0  0  0  0  0  0  0
   10.0914    6.6605   23.3788 H   0  0  0  0  0  0  0  0  0  0  0  0
    7.0862   10.0678   22.6431 H   0  0  0  0  0  0  0  0  0  0  0  0
    3.9386    6.1760   24.7223 H   0  0  0  0  0  0  0  0  0  0  0  0
    5.9488    4.7149   24.6665 H   0  0  0  0  0  0  0  0  0  0  0  0
    8.1144    5.6255   23.8692 H   0  0  0  0  0  0  0  0  0  0  0  0
    9.8735   11.4527   21.0910 H   0  0  0  0  0  0  0  0  0  0  0  0
    7.9562    9.9549   22.2829 H   0  0  0  0  0  0  0  0  0  0  0  0
   12.5687    7.4344   22.3424 H   0  0  0  0  0  0  0  0  0  0  0  0
    1.8895    9.1804   24.7989 H   0  0  0  0  0  0  0  0  0  0  0  0
    4.0807    8.1691   26.0261 H   0  0  0  0  0  0  0  0  0  0  0  0
    4.7194    9.8041   25.8798 H   0  0  0  0  0  0  0  0  0  0  0  0
    2.3223    8.7838   27.4238 H   0  0  0  0  0  0  0  0  0  0  0  0
    3.4791   10.0565   27.8806 H   0  0  0  0  0  0  0  0  0  0  0  0
    1.0100   10.2135   26.0960 H   0  0  0  0  0  0  0  0  0  0  0  0
    1.6929   11.4201   27.3092 H   0  0  0  0  0  0  0  0  0  0  0  0
    1.6737   12.2817   24.9584 H   0  0  0  0  0  0  0  0  0  0  0  0
    3.3196   12.1910   25.7260 H   0  0  0  0  0  0  0  0  0  0  0  0
    3.9923   11.0446   23.7780 H   0  0  0  0  0  0  0  0  0  0  0  0
    1.0433   11.1878   23.3515 H   0  0  0  0  0  0  0  0  0  0  0  0
    2.4063   11.8217   22.3681 H   0  0  0  0  0  0  0  0  0  0  0  0
    2.0406   10.0631   22.3681 H   0  0  0  0  0  0  0  0  0  0  0  0
   15.4579    8.6670   19.7718 H   0  0  0  0  0  0  0  0  0  0  0  0
   15.9255    9.7513   21.7504 H   0  0  0  0  0  0  0  0  0  0  0  0
   14.5843   10.2618   22.8102 H   0  0  0  0  0  0  0  0  0  0  0  0
  1 29  1  0  0  0  0
  3  2  1  0  0  0  0
  3 30  1  0  0  0  0
  4  2  2  0  0  0  0
  5  4  1  0  0  0  0
  5 31  1  0  0  0  0
  6  5  2  0  0  0  0
  6 32  1  0  0  0  0
  7  6  1  0  0  0  0
  7 33  1  0  0  0  0
  8  7  2  0  0  0  0
  8  2  1  0  0  0  0
 10  9  1  0  0  0  0
 11 10  2  0  0  0  0
 11 34  1  0  0  0  0
 12 35  1  0  0  0  0
 13 11  1  0  0  0  0
 13 12  1  0  0  0  0
 14 13  2  0  0  0  0
 14  1  1  0  0  0  0
 15 14  1  0  0  0  0
 15  9  2  0  0  0  0
 15 36  1  0  0  0  0
 16 12  1  0  0  0  0
 16  8  1  0  0  0  0
 16  1  2  0  0  0  0
 17 10  1  0  0  0  0
 18  4  1  0  0  0  0
 19 18  1  0  0  0  0
 19 37  1  1  0  0  0
 20 19  1  0  0  0  0
 20 38  1  0  0  0  0
 20 39  1  0  0  0  0
 21 20  1  0  0  0  0
 21 40  1  0  0  0  0
 21 41  1  0  0  0  0
 22 21  1  0  0  0  0
 22 42  1  0  0  0  0
 22 43  1  0  0  0  0
 23 22  1  0  0  0  0
 23 44  1  0  0  0  0
 23 45  1  0  0  0  0
 24 19  1  0  0  0  0
 24 23  1  0  0  0  0
 24 46  1  6  0  0  0
 25 24  1  0  0  0  0
 25 47  1  0  0  0  0
 25 48  1  0  0  0  0
 25 49  1  0  0  0  0
 26  9  1  0  0  0  0
 27 26  2  0  0  0  0
 27 50  1  0  0  0  0
 28 26  1  0  0  0  0
 28 51  1  0  0  0  0
 28 52  1  0  0  0  0
M  END
$$$$
