L09
 OpenBabel10022215383D

 50 52  0  0  0  0  0  0  0  0999 V2000
   -3.9680    0.0980   25.2910 Cl  0  0  0  0  0  0  0  0  0  0  0  0
   -4.7680    4.5510   24.4740 C   0  0  0  0  0  0  0  0  0  0  0  0
   -5.6900    3.7260   25.2090 C   0  0  0  0  0  0  0  0  0  0  0  0
   -5.4290    2.3630   25.4410 C   0  0  0  0  0  0  0  0  0  0  0  0
   -4.2070    1.7780   24.9470 C   0  0  0  0  0  0  0  0  0  0  0  0
   -3.2630    2.5760   24.2030 C   0  0  0  0  0  0  0  0  0  0  0  0
   -3.5360    3.9640   23.9750 C   0  0  0  0  0  0  0  0  0  0  0  0
   -5.1400    5.9240   24.3300 N   0  0  0  0  0  0  0  0  0  0  0  0
   -5.0610    6.9300   25.2660 C   0  0  0  0  0  0  0  0  0  0  0  0
   -5.4670    8.1900   24.8560 N   0  0  0  0  0  0  0  0  0  0  0  0
   -4.6840    6.6990   26.3990 O   0  0  0  0  0  0  0  0  0  0  0  0
   -5.3230    9.4170   25.5780 C   0  0  0  0  0  0  0  0  0  0  0  0
   -4.3380   10.3920   25.4820 C   0  0  0  0  0  0  0  0  0  0  0  0
   -4.6240   11.3660   26.4060 C   0  0  0  0  0  0  0  0  0  0  0  0
   -5.7480   10.9940   27.0440 N   0  0  0  0  0  0  0  0  0  0  0  0
   -6.1610    9.7890   26.5150 N   0  0  0  0  0  0  0  0  0  0  0  0
   -3.8390   12.6640   26.6690 C   0  0  0  0  0  0  0  0  0  0  0  0
   -3.9840   13.6630   25.4990 C   0  0  0  0  0  0  0  0  0  0  0  0
   -2.3540   12.3660   26.8970 C   0  0  0  0  0  0  0  0  0  0  0  0
   -4.4150   13.3430   27.9550 C   0  0  0  0  0  0  0  0  0  0  0  0
   -1.9530    1.9930   23.6690 C   0  0  0  0  0  0  0  0  0  0  0  0
   -1.6370    2.7030   22.4520 O   0  0  0  0  0  0  0  0  0  0  0  0
   -0.2930    2.9640   22.2520 C   0  0  0  0  0  0  0  0  0  0  0  0
    0.5780    2.8400   23.3890 C   0  0  0  0  0  0  0  0  0  0  0  0
    1.9860    3.0900   23.2630 C   0  0  0  0  0  0  0  0  0  0  0  0
    2.4900    3.4540   22.0010 C   0  0  0  0  0  0  0  0  0  0  0  0
    1.6540    3.5690   20.9210 N   0  0  0  0  0  0  0  0  0  0  0  0
    0.3130    3.3440   20.9850 C   0  0  0  0  0  0  0  0  0  0  0  0
   -6.6182    4.1703   25.5976 H   0  0  0  0  0  0  0  0  0  0  0  0
   -6.1525    1.7475   25.9957 H   0  0  0  0  0  0  0  0  0  0  0  0
   -2.8142    4.5841   23.4232 H   0  0  0  0  0  0  0  0  0  0  0  0
   -5.5145    6.1945   23.4094 H   0  0  0  0  0  0  0  0  0  0  0  0
   -5.9208    8.2496   23.9333 H   0  0  0  0  0  0  0  0  0  0  0  0
   -3.4829   10.3848   24.7901 H   0  0  0  0  0  0  0  0  0  0  0  0
   -6.9966    9.2639   26.8098 H   0  0  0  0  0  0  0  0  0  0  0  0
   -4.1312   14.6771   25.8989 H   0  0  0  0  0  0  0  0  0  0  0  0
   -3.0732   13.6405   24.8826 H   0  0  0  0  0  0  0  0  0  0  0  0
   -4.8508   13.3825   24.8826 H   0  0  0  0  0  0  0  0  0  0  0  0
   -2.1499   12.3250   27.9771 H   0  0  0  0  0  0  0  0  0  0  0  0
   -2.0995   11.3989   26.4388 H   0  0  0  0  0  0  0  0  0  0  0  0
   -1.7461   13.1601   26.4388 H   0  0  0  0  0  0  0  0  0  0  0  0
   -3.9984   12.8519   28.8468 H   0  0  0  0  0  0  0  0  0  0  0  0
   -4.1409   14.4083   27.9613 H   0  0  0  0  0  0  0  0  0  0  0  0
   -5.5107   13.2463   27.9613 H   0  0  0  0  0  0  0  0  0  0  0  0
   -1.1493    2.1328   24.4069 H   0  0  0  0  0  0  0  0  0  0  0  0
   -2.0537    0.9144   23.4780 H   0  0  0  0  0  0  0  0  0  0  0  0
    0.1615    2.5507   24.3651 H   0  0  0  0  0  0  0  0  0  0  0  0
    2.6544    2.9992   24.1319 H   0  0  0  0  0  0  0  0  0  0  0  0
    3.5659    3.6483   21.8798 H   0  0  0  0  0  0  0  0  0  0  0  0
   -0.3090    3.4489   20.0838 H   0  0  0  0  0  0  0  0  0  0  0  0
  3  2  2  0  0  0  0
  3 29  1  0  0  0  0
  4  3  1  0  0  0  0
  4 30  1  0  0  0  0
  5  4  2  0  0  0  0
  5  1  1  0  0  0  0
  6  5  1  0  0  0  0
  7  6  2  0  0  0  0
  7  2  1  0  0  0  0
  7 31  1  0  0  0  0
  8  2  1  0  0  0  0
  8 32  1  0  0  0  0
  9  8  1  0  0  0  0
 10  9  1  0  0  0  0
 10 33  1  0  0  0  0
 11  9  2  0  0  0  0
 12 10  1  0  0  0  0
 13 12  2  0  0  0  0
 13 34  1  0  0  0  0
 14 13  1  0  0  0  0
 15 14  2  0  0  0  0
 16 15  1  0  0  0  0
 16 12  1  0  0  0  0
 16 35  1  0  0  0  0
 17 14  1  0  0  0  0
 18 17  1  0  0  0  0
 18 36  1  0  0  0  0
 18 37  1  0  0  0  0
 18 38  1  0  0  0  0
 19 17  1  0  0  0  0
 19 39  1  0  0  0  0
 19 40  1  0  0  0  0
 19 41  1  0  0  0  0
 20 17  1  0  0  0  0
 20 42  1  0  0  0  0
 20 43  1  0  0  0  0
 20 44  1  0  0  0  0
 21  6  1  0  0  0  0
 21 45  1  0  0  0  0
 21 46  1  0  0  0  0
 22 21  1  0  0  0  0
 23 22  1  0  0  0  0
 24 23  2  0  0  0  0
 24 47  1  0  0  0  0
 25 24  1  0  0  0  0
 25 48  1  0  0  0  0
 26 25  2  0  0  0  0
 26 49  1  0  0  0  0
 27 26  1  0  0  0  0
 28 27  2  0  0  0  0
 28 23  1  0  0  0  0
 28 50  1  0  0  0  0
M  END
$$$$
