1EN
 OpenBabel09072215103D

 42 46  0  0  0  0  0  0  0  0999 V2000
   48.4470   63.1270   80.6520 C   0  0  0  0  0  0  0  0  0  0  0  0
   47.1630   62.7730   80.4500 C   0  0  0  0  0  0  0  0  0  0  0  0
   46.5560   61.7700   81.1870 N   0  0  0  0  0  0  0  0  0  0  0  0
   47.2430   61.0810   82.1550 C   0  0  0  0  0  0  0  0  0  0  0  0
   48.6520   61.4290   82.4140 C   0  0  0  0  0  0  0  0  0  0  0  0
   49.2340   62.4140   81.6850 C   0  0  0  0  0  0  0  0  0  0  0  0
   45.2870   61.2830   81.1520 C   0  0  0  0  0  0  0  0  0  0  0  0
   45.1780   60.3160   82.0270 N   0  0  0  0  0  0  0  0  0  0  0  0
   46.4510   60.1940   82.6980 N   0  0  0  0  0  0  0  0  0  0  0  0
   44.2180   61.7330   80.2070 C   0  0  0  0  0  0  0  0  0  0  0  0
   44.5990   62.0520   78.8030 C   0  0  0  0  0  0  0  0  0  0  0  0
   43.7910   60.8310   79.0990 C   0  0  0  0  0  0  0  0  0  0  0  0
   43.2260   62.6280   80.9150 C   0  0  0  0  0  0  0  0  0  0  0  0
   41.9320   62.1780   81.1930 C   0  0  0  0  0  0  0  0  0  0  0  0
   41.0320   63.0290   81.8540 C   0  0  0  0  0  0  0  0  0  0  0  0
   41.4320   64.3160   82.2510 C   0  0  0  0  0  0  0  0  0  0  0  0
   40.3020   65.3470   83.0580 Cl  0  0  0  0  0  0  0  0  0  0  0  0
   42.7290   64.7730   81.9810 C   0  0  0  0  0  0  0  0  0  0  0  0
   43.6220   63.9220   81.3150 C   0  0  0  0  0  0  0  0  0  0  0  0
   49.3330   60.7520   83.3860 O   0  0  0  0  0  0  0  0  0  0  0  0
   49.9110   59.5880   83.0110 C   0  0  0  0  0  0  0  0  0  0  0  0
   49.3780   58.3730   83.4780 C   0  0  0  0  0  0  0  0  0  0  0  0
   49.9590   57.1550   83.1130 C   0  0  0  0  0  0  0  0  0  0  0  0
   48.2970   58.3810   84.2780 F   0  0  0  0  0  0  0  0  0  0  0  0
   51.0840   57.1710   82.2770 C   0  0  0  0  0  0  0  0  0  0  0  0
   51.6190   58.3940   81.8210 C   0  0  0  0  0  0  0  0  0  0  0  0
   51.0360   59.6150   82.1780 C   0  0  0  0  0  0  0  0  0  0  0  0
   48.9040   63.9330   80.0591 H   0  0  0  0  0  0  0  0  0  0  0  0
   46.5800   63.2957   79.6774 H   0  0  0  0  0  0  0  0  0  0  0  0
   50.2863   62.6823   81.8602 H   0  0  0  0  0  0  0  0  0  0  0  0
   44.1359   62.9066   78.2880 H   0  0  0  0  0  0  0  0  0  0  0  0
   45.5461   62.2501   78.2798 H   0  0  0  0  0  0  0  0  0  0  0  0
   42.7326   60.7862   78.8026 H   0  0  0  0  0  0  0  0  0  0  0  0
   43.8958   59.7571   78.8849 H   0  0  0  0  0  0  0  0  0  0  0  0
   41.6214   61.1653   80.8963 H   0  0  0  0  0  0  0  0  0  0  0  0
   40.0078   62.6861   82.0623 H   0  0  0  0  0  0  0  0  0  0  0  0
   43.0411   65.7826   82.2865 H   0  0  0  0  0  0  0  0  0  0  0  0
   44.6443   64.2673   81.1015 H   0  0  0  0  0  0  0  0  0  0  0  0
   49.5418   56.2035   83.4745 H   0  0  0  0  0  0  0  0  0  0  0  0
   51.5530   56.2231   81.9744 H   0  0  0  0  0  0  0  0  0  0  0  0
   52.5088   58.3878   81.1743 H   0  0  0  0  0  0  0  0  0  0  0  0
   51.4493   60.5676   81.8150 H   0  0  0  0  0  0  0  0  0  0  0  0
  1 28  1  0  0  0  0
  2  1  2  0  0  0  0
  2 29  1  0  0  0  0
  3  2  1  0  0  0  0
  4  3  1  0  0  0  0
  5  4  1  0  0  0  0
  6  1  1  0  0  0  0
  6  5  2  0  0  0  0
  6 30  1  0  0  0  0
  7  3  1  0  0  0  0
  8  7  2  0  0  0  0
  9  8  1  0  0  0  0
  9  4  2  0  0  0  0
 10  7  1  0  0  0  0
 11 10  1  0  0  0  0
 11 31  1  0  0  0  0
 11 32  1  0  0  0  0
 12 11  1  0  0  0  0
 12 10  1  0  0  0  0
 12 33  1  0  0  0  0
 12 34  1  0  0  0  0
 13 10  1  0  0  0  0
 14 13  2  0  0  0  0
 14 35  1  0  0  0  0
 15 14  1  0  0  0  0
 15 36  1  0  0  0  0
 16 15  2  0  0  0  0
 17 16  1  0  0  0  0
 18 16  1  0  0  0  0
 18 37  1  0  0  0  0
 19 13  1  0  0  0  0
 19 18  2  0  0  0  0
 19 38  1  0  0  0  0
 20  5  1  0  0  0  0
 21 20  1  0  0  0  0
 22 21  2  0  0  0  0
 23 22  1  0  0  0  0
 23 39  1  0  0  0  0
 24 22  1  0  0  0  0
 25 23  2  0  0  0  0
 25 40  1  0  0  0  0
 26 25  1  0  0  0  0
 26 41  1  0  0  0  0
 27 26  2  0  0  0  0
 27 21  1  0  0  0  0
 27 42  1  0  0  0  0
M  END
$$$$
