S14
 OpenBabel04182217363D

 56 59  0  0  0  0  0  0  0  0999 V2000
   44.1650   50.0940   40.1620 C   0  0  0  0  0  0  0  0  0  0  0  0
   46.2460   51.3220   39.7110 C   0  0  0  0  0  0  0  0  0  0  0  0
   45.5460   50.2970   40.4220 C   0  0  0  0  0  0  0  0  0  0  0  0
   43.4870   50.8620   39.2170 C   0  0  0  0  0  0  0  0  0  0  0  0
   45.5490   52.1020   38.7510 C   0  0  0  0  0  0  0  0  0  0  0  0
   47.6050   48.9150   41.2110 C   0  0  0  0  0  0  0  0  0  0  0  0
   44.1490   51.8760   38.4850 C   0  0  0  0  0  0  0  0  0  0  0  0
   46.2070   49.4180   41.4080 C   0  0  0  0  0  0  0  0  0  0  0  0
   48.2250   48.1260   42.1430 C   0  0  0  0  0  0  0  0  0  0  0  0
   41.1720   58.3100   36.6130 C   0  0  0  0  0  0  0  0  0  0  0  0
   45.5290   49.0590   42.5360 C   0  0  0  0  0  0  0  0  0  0  0  0
   40.8470   56.8270   36.4330 C   0  0  0  0  0  0  0  0  0  0  0  0
   44.3750   51.5140   33.8480 C   0  0  0  0  0  0  0  0  0  0  0  0
   42.3930   50.8480   35.2490 C   0  0  0  0  0  0  0  0  0  0  0  0
   43.1480   57.1050   37.1860 C   0  0  0  0  0  0  0  0  0  0  0  0
   45.7390   47.7950   44.6160 N   0  0  0  0  0  0  0  0  0  0  0  0
   43.3270   52.6520   37.4310 C   0  0  2  0  0  0  0  0  0  0  0  0
   47.4690   47.7530   43.3510 C   0  0  0  0  0  0  0  0  0  0  0  0
   42.6670   58.4510   36.7860 C   0  0  1  0  0  0  0  0  0  0  0  0
   47.8370   47.0190   44.4070 N   0  0  0  0  0  0  0  0  0  0  0  0
   46.2010   48.2170   43.5400 N   0  0  0  0  0  0  0  0  0  0  0  0
   46.7230   47.0690   45.1650 C   0  0  0  0  0  0  0  0  0  0  0  0
   43.2030   58.7380   35.5480 F   0  0  0  0  0  0  0  0  0  0  0  0
   44.1780   52.5450   36.0770 C   0  0  0  0  0  0  0  0  0  0  0  0
   41.2800   54.0790   36.3640 O   0  0  0  0  0  0  0  0  0  0  0  0
   42.0660   54.7900   36.9720 C   0  0  0  0  0  0  0  0  0  0  0  0
   45.1280   53.2860   35.7880 O   0  0  0  0  0  0  0  0  0  0  0  0
   42.0150   56.1220   36.9140 N   0  0  0  0  0  0  0  0  0  0  0  0
   43.6280   51.6420   35.1230 N   0  0  0  0  0  0  0  0  0  0  0  0
   43.1910   54.1590   37.8530 C   0  0  1  0  0  0  0  0  0  0  0  0
   42.8540   54.3060   39.2640 N   0  0  0  0  0  0  0  0  0  0  0  0
   43.6537   49.3641   40.6825 H   0  0  0  0  0  0  0  0  0  0  0  0
   47.2472   51.4928   39.8939 H   0  0  0  0  0  0  0  0  0  0  0  0
   42.4839   50.6880   39.0481 H   0  0  0  0  0  0  0  0  0  0  0  0
   46.0513   52.8417   38.2357 H   0  0  0  0  0  0  0  0  0  0  0  0
   48.1139   49.1700   40.3502 H   0  0  0  0  0  0  0  0  0  0  0  0
   49.1947   47.8018   42.0029 H   0  0  0  0  0  0  0  0  0  0  0  0
   40.6704   58.6877   37.4794 H   0  0  0  0  0  0  0  0  0  0  0  0
   40.8459   58.8651   35.7583 H   0  0  0  0  0  0  0  0  0  0  0  0
   44.5573   49.3736   42.6839 H   0  0  0  0  0  0  0  0  0  0  0  0
   40.6723   56.6036   35.4013 H   0  0  0  0  0  0  0  0  0  0  0  0
   39.9621   56.5441   36.9639 H   0  0  0  0  0  0  0  0  0  0  0  0
   43.8755   50.8146   33.2106 H   0  0  0  0  0  0  0  0  0  0  0  0
   45.3672   51.1677   34.0492 H   0  0  0  0  0  0  0  0  0  0  0  0
   44.4212   52.4674   33.3644 H   0  0  0  0  0  0  0  0  0  0  0  0
   41.9504   51.0265   36.2067 H   0  0  0  0  0  0  0  0  0  0  0  0
   42.6260   49.8082   35.1520 H   0  0  0  0  0  0  0  0  0  0  0  0
   41.7058   51.1328   34.4799 H   0  0  0  0  0  0  0  0  0  0  0  0
   43.3967   57.0989   38.2267 H   0  0  0  0  0  0  0  0  0  0  0  0
   44.0248   56.8358   36.6350 H   0  0  0  0  0  0  0  0  0  0  0  0
   42.3385   52.2566   37.3239 H   0  0  0  0  0  0  0  0  0  0  0  0
   42.9309   59.2075   37.4952 H   0  0  0  0  0  0  0  0  0  0  0  0
   46.6365   46.5951   46.0777 H   0  0  0  0  0  0  0  0  0  0  0  0
   44.1292   54.6522   37.7065 H   0  0  0  0  0  0  0  0  0  0  0  0
   41.9617   53.8481   39.4499 H   0  0  0  0  0  0  0  0  0  0  0  0
   42.7823   55.2969   39.4950 H   0  0  0  0  0  0  0  0  0  0  0  0
  1 32  1  0  0  0  0
  2 33  1  0  0  0  0
  3  2  1  0  0  0  0
  3  1  2  0  0  0  0
  4  1  1  0  0  0  0
  4 34  1  0  0  0  0
  5  2  2  0  0  0  0
  5 35  1  0  0  0  0
  6 36  1  0  0  0  0
  7  4  2  0  0  0  0
  7  5  1  0  0  0  0
  8  6  1  0  0  0  0
  8  3  1  0  0  0  0
  9  6  2  0  0  0  0
  9 37  1  0  0  0  0
 10 38  1  0  0  0  0
 10 39  1  0  0  0  0
 11  8  2  0  0  0  0
 11 40  1  0  0  0  0
 12 10  1  0  0  0  0
 12 41  1  0  0  0  0
 12 42  1  0  0  0  0
 13 43  1  0  0  0  0
 13 44  1  0  0  0  0
 13 45  1  0  0  0  0
 14 46  1  0  0  0  0
 14 47  1  0  0  0  0
 14 48  1  0  0  0  0
 15 49  1  0  0  0  0
 15 50  1  0  0  0  0
 17  7  1  0  0  0  0
 17 51  1  6  0  0  0
 18  9  1  0  0  0  0
 19 15  1  0  0  0  0
 19 10  1  0  0  0  0
 19 52  1  1  0  0  0
 20 18  2  0  0  0  0
 21 18  1  0  0  0  0
 21 16  1  0  0  0  0
 21 11  1  0  0  0  0
 22 20  1  0  0  0  0
 22 16  2  0  0  0  0
 22 53  1  0  0  0  0
 23 19  1  0  0  0  0
 24 17  1  0  0  0  0
 26 25  2  0  0  0  0
 27 24  2  0  0  0  0
 28 26  1  0  0  0  0
 28 15  1  0  0  0  0
 28 12  1  0  0  0  0
 29 14  1  0  0  0  0
 29 24  1  0  0  0  0
 29 13  1  0  0  0  0
 30 17  1  0  0  0  0
 30 26  1  0  0  0  0
 30 54  1  6  0  0  0
 31 30  1  0  0  0  0
 31 55  1  0  0  0  0
 31 56  1  0  0  0  0
M  END
$$$$
