CMI
 OpenBabel06022217123D

 60 63  0  0  0  0  0  0  0  0999 V2000
    7.4570   11.9820   20.5730 C   0  0  0  0  0  0  0  0  0  0  0  0
    8.0130   10.7140   20.8820 C   0  0  0  0  0  0  0  0  0  0  0  0
    7.1660    9.6030   21.0760 C   0  0  0  0  0  0  0  0  0  0  0  0
    5.7540    9.7540   20.9470 C   0  0  0  0  0  0  0  0  0  0  0  0
    5.2170   11.0010   20.6260 C   0  0  0  0  0  0  0  0  0  0  0  0
    6.0560   12.1250   20.4500 C   0  0  0  0  0  0  0  0  0  0  0  0
    7.4380    8.2950   21.4090 N   0  0  0  0  0  0  0  0  0  0  0  0
    6.2680    7.5920   21.4950 C   0  0  0  0  0  0  0  0  0  0  0  0
    5.1990    8.4850   21.2140 C   0  0  0  0  0  0  0  0  0  0  0  0
    3.7750   11.1830   20.3940 C   0  0  0  0  0  0  0  0  0  0  0  0
    6.1630    6.2020   21.7560 C   0  0  0  0  0  0  0  0  0  0  0  0
    6.7780    5.3650   20.8920 N   0  0  0  0  0  0  0  0  0  0  0  0
    5.5680    5.7890   22.7570 O   0  0  0  0  0  0  0  0  0  0  0  0
    6.6020    3.9150   21.0050 C   0  0  0  0  0  0  0  0  0  0  0  0
    6.7860    3.1200   19.7350 C   0  0  0  0  0  0  0  0  0  0  0  0
    5.9030    3.4030   18.6890 C   0  0  0  0  0  0  0  0  0  0  0  0
    6.0740    2.7760   17.4540 C   0  0  0  0  0  0  0  0  0  0  0  0
    7.0900    1.8390   17.2610 C   0  0  0  0  0  0  0  0  0  0  0  0
    5.2150    3.1420   16.3280 C   0  0  0  0  0  0  0  0  0  0  0  0
    7.9610    1.5200   18.2950 C   0  0  0  0  0  0  0  0  0  0  0  0
    7.8170    2.1670   19.5430 C   0  0  0  0  0  0  0  0  0  0  0  0
    9.0130    0.5160   18.0490 C   0  0  0  0  0  0  0  0  0  0  0  0
    8.7830    7.7960   21.7380 C   0  0  0  0  0  0  0  0  0  0  0  0
    9.1880    8.0720   23.1440 C   0  0  0  0  0  0  0  0  0  0  0  0
   10.3470    8.8020   23.4650 C   0  0  0  0  0  0  0  0  0  0  0  0
   10.7520    8.9480   24.7890 C   0  0  0  0  0  0  0  0  0  0  0  0
    9.9720    8.3630   25.7890 C   0  0  0  0  0  0  0  0  0  0  0  0
    8.7820    7.6570   25.4890 C   0  0  0  0  0  0  0  0  0  0  0  0
    8.3940    7.5230   24.1470 C   0  0  0  0  0  0  0  0  0  0  0  0
    7.9770    7.0350   26.5630 C   0  0  0  0  0  0  0  0  0  0  0  0
    8.5520    6.6160   27.6960 N   0  0  0  0  0  0  0  0  0  0  0  0
    6.6670    6.8480   26.4250 N   0  0  0  0  0  0  0  0  0  0  0  0
    8.1146   12.8520   20.4294 H   0  0  0  0  0  0  0  0  0  0  0  0
    9.1032   10.5974   20.9702 H   0  0  0  0  0  0  0  0  0  0  0  0
    5.6200   13.1079   20.2180 H   0  0  0  0  0  0  0  0  0  0  0  0
    4.1286    8.2316   21.2061 H   0  0  0  0  0  0  0  0  0  0  0  0
    3.2536   11.2488   21.3603 H   0  0  0  0  0  0  0  0  0  0  0  0
    3.6093   12.1092   19.8241 H   0  0  0  0  0  0  0  0  0  0  0  0
    3.3844   10.3270   19.8241 H   0  0  0  0  0  0  0  0  0  0  0  0
    7.3761    5.7499   20.1470 H   0  0  0  0  0  0  0  0  0  0  0  0
    7.3308    3.5449   21.7411 H   0  0  0  0  0  0  0  0  0  0  0  0
    5.5511    3.7679   21.2946 H   0  0  0  0  0  0  0  0  0  0  0  0
    5.0784    4.1155   18.8384 H   0  0  0  0  0  0  0  0  0  0  0  0
    7.2020    1.3492   16.2824 H   0  0  0  0  0  0  0  0  0  0  0  0
    4.2652    3.5467   16.7078 H   0  0  0  0  0  0  0  0  0  0  0  0
    5.7189    3.9036   15.7148 H   0  0  0  0  0  0  0  0  0  0  0  0
    5.0148    2.2510   15.7148 H   0  0  0  0  0  0  0  0  0  0  0  0
    8.5064    1.9305   20.3669 H   0  0  0  0  0  0  0  0  0  0  0  0
    9.3997    0.1470   19.0104 H   0  0  0  0  0  0  0  0  0  0  0  0
    8.5919   -0.3236   17.4766 H   0  0  0  0  0  0  0  0  0  0  0  0
    9.8321    0.9758   17.4766 H   0  0  0  0  0  0  0  0  0  0  0  0
    8.8003    6.7079   21.5772 H   0  0  0  0  0  0  0  0  0  0  0  0
    9.4940    8.3238   21.0854 H   0  0  0  0  0  0  0  0  0  0  0  0
   10.9398    9.2625   22.6610 H   0  0  0  0  0  0  0  0  0  0  0  0
   11.6634    9.5100   25.0411 H   0  0  0  0  0  0  0  0  0  0  0  0
   10.2908    8.4532   26.8379 H   0  0  0  0  0  0  0  0  0  0  0  0
    7.4683    6.9875   23.8893 H   0  0  0  0  0  0  0  0  0  0  0  0
    7.9791    6.1847   28.4354 H   0  0  0  0  0  0  0  0  0  0  0  0
    6.1259    6.4129   27.1858 H   0  0  0  0  0  0  0  0  0  0  0  0
    6.1939    7.1383   25.5574 H   0  0  0  0  0  0  0  0  0  0  0  0
  1 33  1  0  0  0  0
  2  1  2  0  0  0  0
  2 34  1  0  0  0  0
  3  2  1  0  0  0  0
  4  3  2  0  0  0  0
  5  4  1  0  0  0  0
  6  5  2  0  0  0  0
  6  1  1  0  0  0  0
  6 35  1  0  0  0  0
  7  3  1  0  0  0  0
  8  7  1  0  0  0  0
  9  8  2  0  0  0  0
  9  4  1  0  0  0  0
  9 36  1  0  0  0  0
 10  5  1  0  0  0  0
 10 37  1  0  0  0  0
 10 38  1  0  0  0  0
 10 39  1  0  0  0  0
 11  8  1  0  0  0  0
 12 11  1  0  0  0  0
 12 40  1  0  0  0  0
 13 11  2  0  0  0  0
 14 12  1  0  0  0  0
 14 41  1  0  0  0  0
 14 42  1  0  0  0  0
 15 14  1  0  0  0  0
 16 15  2  0  0  0  0
 16 43  1  0  0  0  0
 17 16  1  0  0  0  0
 18 17  2  0  0  0  0
 18 44  1  0  0  0  0
 19 17  1  0  0  0  0
 19 45  1  0  0  0  0
 19 46  1  0  0  0  0
 19 47  1  0  0  0  0
 20 18  1  0  0  0  0
 21 20  2  0  0  0  0
 21 15  1  0  0  0  0
 21 48  1  0  0  0  0
 22 20  1  0  0  0  0
 22 49  1  0  0  0  0
 22 50  1  0  0  0  0
 22 51  1  0  0  0  0
 23  7  1  0  0  0  0
 23 52  1  0  0  0  0
 23 53  1  0  0  0  0
 24 23  1  0  0  0  0
 25 24  2  0  0  0  0
 25 54  1  0  0  0  0
 26 25  1  0  0  0  0
 26 55  1  0  0  0  0
 27 26  2  0  0  0  0
 27 56  1  0  0  0  0
 28 27  1  0  0  0  0
 29 28  2  0  0  0  0
 29 24  1  0  0  0  0
 29 57  1  0  0  0  0
 30 28  1  0  0  0  0
 31 30  2  0  0  0  0
 31 58  1  0  0  0  0
 32 30  1  0  0  0  0
 32 59  1  0  0  0  0
 32 60  1  0  0  0  0
M  END
$$$$
