BQN
 OpenBabel09202214423D

 61 64  0  0  0  0  0  0  0  0999 V2000
  -17.7400   17.4300   -8.1390 C   0  0  0  0  0  0  0  0  0  0  0  0
  -17.6140   16.4810   -7.1060 C   0  0  0  0  0  0  0  0  0  0  0  0
  -18.6060   16.4030   -6.0960 C   0  0  0  0  0  0  0  0  0  0  0  0
  -19.6800   17.3070   -6.1220 C   0  0  0  0  0  0  0  0  0  0  0  0
  -19.7750   18.2520   -7.1460 C   0  0  0  0  0  0  0  0  0  0  0  0
  -18.8130   18.3180   -8.1440 C   0  0  0  0  0  0  0  0  0  0  0  0
  -20.9290   17.2950   -4.9640 S   0  0  0  0  0  0  0  0  0  0  0  0
  -20.9460   18.8120   -4.1920 C   0  0  0  0  0  0  0  0  0  0  0  0
  -20.1180   19.0120   -3.0930 C   0  0  0  0  0  0  0  0  0  0  0  0
  -20.0960   20.2470   -2.4460 C   0  0  0  0  0  0  0  0  0  0  0  0
  -20.9060   21.2860   -2.8980 C   0  0  0  0  0  0  0  0  0  0  0  0
  -21.7380   21.0890   -3.9960 C   0  0  0  0  0  0  0  0  0  0  0  0
  -21.7580   19.8530   -4.6490 C   0  0  0  0  0  0  0  0  0  0  0  0
  -22.5710   19.6500   -5.7410 O   0  0  0  0  0  0  0  0  0  0  0  0
  -23.0070   20.7210   -6.5910 C   0  0  0  0  0  0  0  0  0  0  0  0
  -22.3770   20.5810   -7.9610 C   0  0  0  0  0  0  0  0  0  0  0  0
  -21.3830   21.4710   -8.3640 C   0  0  0  0  0  0  0  0  0  0  0  0
  -20.8190   21.3550   -9.5780 N   0  0  0  0  0  0  0  0  0  0  0  0
  -21.1870   20.3920  -10.4380 C   0  0  0  0  0  0  0  0  0  0  0  0
  -22.1780   19.4740  -10.0840 C   0  0  0  0  0  0  0  0  0  0  0  0
  -22.7820   19.5720   -8.8310 C   0  0  0  0  0  0  0  0  0  0  0  0
  -18.4930   15.4100   -4.9430 C   0  0  0  0  0  0  0  0  0  0  0  0
  -18.7300   14.1760   -5.2960 F   0  0  0  0  0  0  0  0  0  0  0  0
  -19.3170   15.7140   -3.9550 F   0  0  0  0  0  0  0  0  0  0  0  0
  -17.2870   15.5070   -4.4080 F   0  0  0  0  0  0  0  0  0  0  0  0
  -16.4630   15.4970   -7.1550 C   0  0  0  0  0  0  0  0  0  0  0  0
  -15.9430   15.4360   -8.3620 F   0  0  0  0  0  0  0  0  0  0  0  0
  -16.9660   14.2870   -6.9900 F   0  0  0  0  0  0  0  0  0  0  0  0
  -15.5090   15.7110   -6.2760 F   0  0  0  0  0  0  0  0  0  0  0  0
  -16.7070   17.5370   -9.2120 C   0  0  0  0  0  0  0  0  0  0  0  0
  -16.9940   17.6210  -10.5160 C   0  0  0  0  0  0  0  0  0  0  0  0
  -15.9010   17.7830  -11.5010 C   0  0  0  0  0  0  0  0  0  0  0  0
  -15.6600   18.9690  -12.0670 N   0  0  0  0  0  0  0  0  0  0  0  0
  -14.6070   19.1100  -13.0720 C   0  0  0  0  0  0  0  0  0  0  0  0
  -16.3890   20.2010  -11.7540 C   0  0  0  0  0  0  0  0  0  0  0  0
  -13.5980   20.0530  -12.4280 C   0  0  0  0  0  0  0  0  0  0  0  0
  -14.2530   21.2990  -12.1980 O   0  0  0  0  0  0  0  0  0  0  0  0
  -15.3410   21.2030  -11.2630 C   0  0  0  0  0  0  0  0  0  0  0  0
  -15.2060   16.8120  -11.7530 O   0  0  0  0  0  0  0  0  0  0  0  0
  -20.6229   18.9526   -7.1616 H   0  0  0  0  0  0  0  0  0  0  0  0
  -18.8980   19.0725   -8.9399 H   0  0  0  0  0  0  0  0  0  0  0  0
  -19.4781   18.1931   -2.7327 H   0  0  0  0  0  0  0  0  0  0  0  0
  -19.4383   20.4008   -1.5778 H   0  0  0  0  0  0  0  0  0  0  0  0
  -20.8881   22.2605   -2.3880 H   0  0  0  0  0  0  0  0  0  0  0  0
  -22.3813   21.9076   -4.3509 H   0  0  0  0  0  0  0  0  0  0  0  0
  -24.1022   20.6869   -6.6880 H   0  0  0  0  0  0  0  0  0  0  0  0
  -22.7025   21.6811   -6.1488 H   0  0  0  0  0  0  0  0  0  0  0  0
  -21.0584   22.2728   -7.6845 H   0  0  0  0  0  0  0  0  0  0  0  0
  -20.7061   20.3258  -11.4251 H   0  0  0  0  0  0  0  0  0  0  0  0
  -22.4788   18.6823  -10.7859 H   0  0  0  0  0  0  0  0  0  0  0  0
  -23.5678   18.8619   -8.5339 H   0  0  0  0  0  0  0  0  0  0  0  0
  -15.6485   17.5474   -8.9128 H   0  0  0  0  0  0  0  0  0  0  0  0
  -18.0391   17.5698  -10.8552 H   0  0  0  0  0  0  0  0  0  0  0  0
  -14.1452   18.1362  -13.2922 H   0  0  0  0  0  0  0  0  0  0  0  0
  -14.9883   19.4923  -14.0304 H   0  0  0  0  0  0  0  0  0  0  0  0
  -16.8924   20.5854  -12.6533 H   0  0  0  0  0  0  0  0  0  0  0  0
  -17.1644   20.0263  -10.9936 H   0  0  0  0  0  0  0  0  0  0  0  0
  -13.2481   19.6321  -11.4738 H   0  0  0  0  0  0  0  0  0  0  0  0
  -12.7269   20.1917  -13.0852 H   0  0  0  0  0  0  0  0  0  0  0  0
  -15.8105   22.1916  -11.1524 H   0  0  0  0  0  0  0  0  0  0  0  0
  -14.9470   20.8575  -10.2958 H   0  0  0  0  0  0  0  0  0  0  0  0
  2  1  2  0  0  0  0
  3  2  1  0  0  0  0
  4  3  2  0  0  0  0
  5  4  1  0  0  0  0
  5 40  1  0  0  0  0
  6  5  2  0  0  0  0
  6  1  1  0  0  0  0
  6 41  1  0  0  0  0
  7  4  1  0  0  0  0
  8  7  1  0  0  0  0
  9  8  2  0  0  0  0
  9 42  1  0  0  0  0
 10  9  1  0  0  0  0
 10 43  1  0  0  0  0
 11 10  2  0  0  0  0
 11 44  1  0  0  0  0
 12 11  1  0  0  0  0
 12 45  1  0  0  0  0
 13 12  2  0  0  0  0
 13  8  1  0  0  0  0
 14 13  1  0  0  0  0
 15 14  1  0  0  0  0
 15 46  1  0  0  0  0
 15 47  1  0  0  0  0
 16 15  1  0  0  0  0
 17 16  2  0  0  0  0
 17 48  1  0  0  0  0
 18 17  1  0  0  0  0
 19 18  2  0  0  0  0
 19 49  1  0  0  0  0
 20 19  1  0  0  0  0
 20 50  1  0  0  0  0
 21 20  2  0  0  0  0
 21 16  1  0  0  0  0
 21 51  1  0  0  0  0
 22  3  1  0  0  0  0
 23 22  1  0  0  0  0
 24 22  1  0  0  0  0
 25 22  1  0  0  0  0
 26  2  1  0  0  0  0
 27 26  1  0  0  0  0
 28 26  1  0  0  0  0
 29 26  1  0  0  0  0
 30  1  1  0  0  0  0
 30 52  1  0  0  0  0
 31 30  2  3  0  0  0
 31 53  1  0  0  0  0
 32 31  1  0  0  0  0
 33 32  1  0  0  0  0
 34 33  1  0  0  0  0
 34 54  1  0  0  0  0
 34 55  1  0  0  0  0
 35 33  1  0  0  0  0
 35 56  1  0  0  0  0
 35 57  1  0  0  0  0
 36 34  1  0  0  0  0
 36 58  1  0  0  0  0
 36 59  1  0  0  0  0
 37 36  1  0  0  0  0
 38 35  1  0  0  0  0
 38 37  1  0  0  0  0
 38 60  1  0  0  0  0
 38 61  1  0  0  0  0
 39 32  2  0  0  0  0
M  END
$$$$
