761
 OpenBabel11032217003D

 28 29  0  0  0  0  0  0  0  0999 V2000
   45.1600   16.0610   -2.8270 C   0  0  0  0  0  0  0  0  0  0  0  0
   45.1450   16.1280   -1.4360 C   0  0  0  0  0  0  0  0  0  0  0  0
   45.3700   14.9940   -0.6630 C   0  0  0  0  0  0  0  0  0  0  0  0
   45.6230   13.7700   -1.3070 C   0  0  0  0  0  0  0  0  0  0  0  0
   45.6510   13.7000   -2.7200 C   0  0  0  0  0  0  0  0  0  0  0  0
   45.4390   14.8500   -3.4690 C   0  0  0  0  0  0  0  0  0  0  0  0
   45.4340   15.0380    0.7410 C   0  0  0  0  0  0  0  0  0  0  0  0
   45.6650   13.8600    1.4650 C   0  0  0  0  0  0  0  0  0  0  0  0
   45.8290   12.6280    0.8080 C   0  0  0  0  0  0  0  0  0  0  0  0
   45.8010   12.5830   -0.5960 C   0  0  0  0  0  0  0  0  0  0  0  0
   45.8160   13.8350    2.8130 N   0  0  0  0  0  0  0  0  0  0  0  0
   46.7750   14.3900    3.5820 C   0  0  0  0  0  0  0  0  0  0  0  0
   47.8700   14.7880    3.1510 O   0  0  0  0  0  0  0  0  0  0  0  0
   46.4680   14.5020    5.1150 C   0  0  0  0  0  0  0  0  0  0  0  0
   45.8660   13.6430    5.7120 O   0  0  0  0  0  0  0  0  0  0  0  0
   47.0030   15.5900    5.7520 O   0  0  0  0  0  0  0  0  0  0  0  0
   45.8620   11.3910    1.5750 C   0  0  0  0  0  0  0  0  0  0  0  0
   46.8250   11.0240    2.1610 O   0  0  0  0  0  0  0  0  0  0  0  0
   44.7030   10.7430    1.5640 O   0  0  0  0  0  0  0  0  0  0  0  0
   44.9520   16.9624   -3.4221 H   0  0  0  0  0  0  0  0  0  0  0  0
   44.9524   17.0916   -0.9417 H   0  0  0  0  0  0  0  0  0  0  0  0
   45.8397   12.7398   -3.2224 H   0  0  0  0  0  0  0  0  0  0  0  0
   45.4905   14.8086   -4.5670 H   0  0  0  0  0  0  0  0  0  0  0  0
   45.3032   15.9938    1.2696 H   0  0  0  0  0  0  0  0  0  0  0  0
   45.9176   11.6265   -1.1265 H   0  0  0  0  0  0  0  0  0  0  0  0
   45.0899   13.3145    3.3256 H   0  0  0  0  0  0  0  0  0  0  0  0
   46.8480   15.7221    6.7208 H   0  0  0  0  0  0  0  0  0  0  0  0
   44.6095    9.8876    2.0536 H   0  0  0  0  0  0  0  0  0  0  0  0
  1 20  1  0  0  0  0
  2  1  2  0  0  0  0
  2 21  1  0  0  0  0
  3  2  1  0  0  0  0
  4  3  2  0  0  0  0
  5  4  1  0  0  0  0
  5 22  1  0  0  0  0
  6  5  2  0  0  0  0
  6  1  1  0  0  0  0
  6 23  1  0  0  0  0
  7  3  1  0  0  0  0
  7 24  1  0  0  0  0
  8  7  2  0  0  0  0
  9  8  1  0  0  0  0
 10  9  2  0  0  0  0
 10  4  1  0  0  0  0
 10 25  1  0  0  0  0
 11  8  1  0  0  0  0
 11 26  1  0  0  0  0
 12 11  1  0  0  0  0
 13 12  2  0  0  0  0
 14 12  1  0  0  0  0
 15 14  2  0  0  0  0
 16 14  1  0  0  0  0
 16 27  1  0  0  0  0
 17  9  1  0  0  0  0
 18 17  2  0  0  0  0
 19 17  1  0  0  0  0
 19 28  1  0  0  0  0
M  END
$$$$
