XMA
 OpenBabel06022216163D

 67 72  0  0  0  0  0  0  0  0999 V2000
    8.5320    7.1610   19.2140 C   0  0  0  0  0  0  0  0  0  0  0  0
    9.4560    6.3910   18.9620 O   0  0  0  0  0  0  0  0  0  0  0  0
    8.2780    8.3740   18.2500 C   0  0  0  0  0  0  0  0  0  0  0  0
    7.1590    9.2980   18.5830 N   0  0  0  0  0  0  0  0  0  0  0  0
    6.5020    7.9730   20.6380 C   0  0  2  0  0  0  0  0  0  0  0  0
    6.0190    8.6950   19.3050 C   0  0  0  0  0  0  0  0  0  0  0  0
    7.6400    7.0340   20.3370 N   0  0  0  0  0  0  0  0  0  0  0  0
    7.3600    5.7640   21.0360 C   0  0  0  0  0  0  0  0  0  0  0  0
    5.0060    2.8000   21.2120 N   0  0  0  0  0  0  0  0  0  0  0  0
    5.4000    3.4500   19.8610 C   0  0  0  0  0  0  0  0  0  0  0  0
    5.4510    3.5260   22.5110 C   0  0  0  0  0  0  0  0  0  0  0  0
    5.7970    5.7410   21.1180 C   0  0  0  0  0  0  0  0  0  0  0  0
    5.4400    7.1550   21.1220 O   0  0  0  0  0  0  0  0  0  0  0  0
    5.1280    4.9860   19.8840 C   0  0  0  0  0  0  0  0  0  0  0  0
    5.2100    5.0730   22.4240 C   0  0  0  0  0  0  0  0  0  0  0  0
    6.6830   10.6520   17.7000 S   0  0  0  0  0  0  0  0  0  0  0  0
    5.2740   10.3260   17.1240 O   0  0  0  0  0  0  0  0  0  0  0  0
    7.6990   10.9500   16.5820 O   0  0  0  0  0  0  0  0  0  0  0  0
    6.5250   12.0050   18.7750 C   0  0  0  0  0  0  0  0  0  0  0  0
    5.2300   12.2480   19.3880 C   0  0  0  0  0  0  0  0  0  0  0  0
    5.0340   13.3030   20.3700 C   0  0  0  0  0  0  0  0  0  0  0  0
    6.2620   14.1970   20.7770 C   0  0  0  0  0  0  0  0  0  0  0  0
    3.7150   13.5560   20.9870 C   0  0  0  0  0  0  0  0  0  0  0  0
    7.5730   13.9320   20.1450 C   0  0  0  0  0  0  0  0  0  0  0  0
    6.0450   15.2490   21.7540 C   0  0  0  0  0  0  0  0  0  0  0  0
    7.7000   12.8680   19.1710 C   0  0  0  0  0  0  0  0  0  0  0  0
    4.7230   15.4600   22.3320 C   0  0  0  0  0  0  0  0  0  0  0  0
    4.4690   16.7340   23.4970 Cl  0  0  0  0  0  0  0  0  0  0  0  0
    3.5770   14.6130   21.9420 C   0  0  0  0  0  0  0  0  0  0  0  0
    6.7700    9.1180   21.7000 C   0  0  0  0  0  0  0  0  0  0  0  0
    6.8500    8.6620   23.0790 O   0  0  0  0  0  0  0  0  0  0  0  0
    8.0980    8.5800   23.6300 C   0  0  0  0  0  0  0  0  0  0  0  0
    4.2280    1.5170   21.2580 C   0  0  0  0  0  0  0  0  0  0  0  0
    3.6270    0.9250   20.0400 C   0  0  0  0  0  0  0  0  0  0  0  0
    2.8930   -0.2960   20.1460 C   0  0  0  0  0  0  0  0  0  0  0  0
    2.7150   -0.9650   21.3470 N   0  0  0  0  0  0  0  0  0  0  0  0
    3.2640   -0.4440   22.5070 C   0  0  0  0  0  0  0  0  0  0  0  0
    4.0180    0.7740   22.5250 C   0  0  0  0  0  0  0  0  0  0  0  0
    9.2011    8.9716   18.2232 H   0  0  0  0  0  0  0  0  0  0  0  0
    7.9850    7.9142   17.2946 H   0  0  0  0  0  0  0  0  0  0  0  0
    5.5312    7.9558   18.6526 H   0  0  0  0  0  0  0  0  0  0  0  0
    5.3150    9.4953   19.5768 H   0  0  0  0  0  0  0  0  0  0  0  0
    7.7380    4.9054   20.4615 H   0  0  0  0  0  0  0  0  0  0  0  0
    7.8457    5.6962   22.0206 H   0  0  0  0  0  0  0  0  0  0  0  0
    6.4703    3.2762   19.6759 H   0  0  0  0  0  0  0  0  0  0  0  0
    4.7943    2.9970   19.0623 H   0  0  0  0  0  0  0  0  0  0  0  0
    4.8772    3.1232   23.3587 H   0  0  0  0  0  0  0  0  0  0  0  0
    6.5290    3.3546   22.6469 H   0  0  0  0  0  0  0  0  0  0  0  0
    5.5240    5.4220   18.9550 H   0  0  0  0  0  0  0  0  0  0  0  0
    4.0401    5.1166   19.9810 H   0  0  0  0  0  0  0  0  0  0  0  0
    4.1257    5.2564   22.4492 H   0  0  0  0  0  0  0  0  0  0  0  0
    5.7354    5.5260   23.2776 H   0  0  0  0  0  0  0  0  0  0  0  0
    4.3753   11.6174   19.1018 H   0  0  0  0  0  0  0  0  0  0  0  0
    2.8471   12.9374   20.7146 H   0  0  0  0  0  0  0  0  0  0  0  0
    8.4485   14.5412   20.4141 H   0  0  0  0  0  0  0  0  0  0  0  0
    6.8838   15.8913   22.0603 H   0  0  0  0  0  0  0  0  0  0  0  0
    8.6797   12.6829   18.7063 H   0  0  0  0  0  0  0  0  0  0  0  0
    2.5930   14.7995   22.3970 H   0  0  0  0  0  0  0  0  0  0  0  0
    7.7223    9.6059   21.4448 H   0  0  0  0  0  0  0  0  0  0  0  0
    5.9072    9.7983   21.6475 H   0  0  0  0  0  0  0  0  0  0  0  0
    8.0156    8.5854   24.7269 H   0  0  0  0  0  0  0  0  0  0  0  0
    8.5826    7.6481   23.3033 H   0  0  0  0  0  0  0  0  0  0  0  0
    8.7003    9.4405   23.3033 H   0  0  0  0  0  0  0  0  0  0  0  0
    3.7447    1.4202   19.0648 H   0  0  0  0  0  0  0  0  0  0  0  0
    2.4497   -0.7240   19.2348 H   0  0  0  0  0  0  0  0  0  0  0  0
    3.1151   -0.9870   23.4520 H   0  0  0  0  0  0  0  0  0  0  0  0
    4.4369    1.1544   23.4683 H   0  0  0  0  0  0  0  0  0  0  0  0
  2  1  2  0  0  0  0
  3  1  1  0  0  0  0
  3 39  1  0  0  0  0
  3 40  1  0  0  0  0
  4  3  1  0  0  0  0
  5 30  1  1  0  0  0
  6  5  1  0  0  0  0
  6  4  1  0  0  0  0
  6 41  1  0  0  0  0
  6 42  1  0  0  0  0
  7  5  1  0  0  0  0
  7  1  1  0  0  0  0
  8  7  1  0  0  0  0
  8 43  1  0  0  0  0
  8 44  1  0  0  0  0
 10  9  1  0  0  0  0
 10 45  1  0  0  0  0
 10 46  1  0  0  0  0
 11  9  1  0  0  0  0
 11 47  1  0  0  0  0
 11 48  1  0  0  0  0
 12  8  1  0  0  0  0
 13 12  1  0  0  0  0
 13  5  1  0  0  0  0
 14 10  1  0  0  0  0
 14 12  1  0  0  0  0
 14 49  1  0  0  0  0
 14 50  1  0  0  0  0
 15 11  1  0  0  0  0
 15 12  1  0  0  0  0
 15 51  1  0  0  0  0
 15 52  1  0  0  0  0
 16  4  1  0  0  0  0
 17 16  2  0  0  0  0
 18 16  2  0  0  0  0
 19 16  1  0  0  0  0
 20 19  2  0  0  0  0
 20 53  1  0  0  0  0
 21 20  1  0  0  0  0
 22 21  2  0  0  0  0
 23 21  1  0  0  0  0
 23 54  1  0  0  0  0
 24 22  1  0  0  0  0
 24 55  1  0  0  0  0
 25 22  1  0  0  0  0
 25 56  1  0  0  0  0
 26 24  2  0  0  0  0
 26 19  1  0  0  0  0
 26 57  1  0  0  0  0
 27 25  2  0  0  0  0
 28 27  1  0  0  0  0
 29 23  2  0  0  0  0
 29 27  1  0  0  0  0
 29 58  1  0  0  0  0
 30 59  1  0  0  0  0
 30 60  1  0  0  0  0
 31 30  1  0  0  0  0
 32 31  1  0  0  0  0
 32 61  1  0  0  0  0
 32 62  1  0  0  0  0
 32 63  1  0  0  0  0
 33  9  1  0  0  0  0
 34 33  2  0  0  0  0
 34 64  1  0  0  0  0
 35 34  1  0  0  0  0
 35 65  1  0  0  0  0
 36 35  2  0  0  0  0
 37 36  1  0  0  0  0
 37 66  1  0  0  0  0
 38 33  1  0  0  0  0
 38 37  2  0  0  0  0
 38 67  1  0  0  0  0
M  END
$$$$
