AZ2
 OpenBabel10252211593D

 52 53  0  0  0  0  0  0  0  0999 V2000
    5.9690   -2.0070   39.1520 C   0  0  0  0  0  0  0  0  0  0  0  0
    5.8490   -3.4110   38.9020 C   0  0  0  0  0  0  0  0  0  0  0  0
    6.9630   -4.1500   38.4080 C   0  0  0  0  0  0  0  0  0  0  0  0
    8.2150   -3.4940   38.1550 C   0  0  0  0  0  0  0  0  0  0  0  0
    8.3190   -2.1080   38.4080 C   0  0  0  0  0  0  0  0  0  0  0  0
    7.2050   -1.3730   38.9010 C   0  0  0  0  0  0  0  0  0  0  0  0
    9.2670   -4.2750   37.6670 O   0  0  0  0  0  0  0  0  0  0  0  0
    9.9180   -3.9910   36.4040 C   0  0  0  0  0  0  0  0  0  0  0  0
    9.0900   -4.6600   35.3030 C   0  0  0  0  0  0  0  0  0  0  0  0
    7.9930   -3.7640   34.7990 C   0  0  0  0  0  0  0  0  0  0  0  0
    8.0650   -2.3500   34.9740 C   0  0  0  0  0  0  0  0  0  0  0  0
    7.0200   -1.5080   34.4970 C   0  0  0  0  0  0  0  0  0  0  0  0
    5.8930   -2.0780   33.8410 C   0  0  0  0  0  0  0  0  0  0  0  0
    5.8160   -3.4820   33.6600 C   0  0  0  0  0  0  0  0  0  0  0  0
    6.8620   -4.3120   34.1390 C   0  0  0  0  0  0  0  0  0  0  0  0
    4.9530   -1.1810   33.4190 O   0  0  0  0  0  0  0  0  0  0  0  0
    5.2540   -0.2310   32.1410 S   0  0  0  0  0  0  0  0  0  0  0  0
    4.7580    1.3060   32.8840 C   0  0  0  0  0  0  0  0  0  0  0  0
    6.6750   -0.1860   31.9220 O   0  0  0  0  0  0  0  0  0  0  0  0
    4.3190   -0.5580   31.0690 O   0  0  0  0  0  0  0  0  0  0  0  0
    4.7990   -1.2040   39.6730 C   0  0  0  0  0  0  0  0  0  0  0  0
    3.4870   -1.3320   38.8660 C   0  0  2  0  0  0  0  0  0  0  0  0
    2.9610   -0.0090   38.7250 O   0  0  0  0  0  0  0  0  0  0  0  0
    2.8640    0.4580   37.3970 C   0  0  0  0  0  0  0  0  0  0  0  0
    1.3850    0.4950   37.0610 C   0  0  0  0  0  0  0  0  0  0  0  0
    2.5450   -2.3070   39.6140 C   0  0  0  0  0  0  0  0  0  0  0  0
    1.2420   -2.1350   39.2990 O   0  0  0  0  0  0  0  0  0  0  0  0
    2.8730   -3.1640   40.4070 O   0  0  0  0  0  0  0  0  0  0  0  0
    4.8934   -3.9217   39.0918 H   0  0  0  0  0  0  0  0  0  0  0  0
    6.8631   -5.2291   38.2194 H   0  0  0  0  0  0  0  0  0  0  0  0
    9.2720   -1.5912   38.2217 H   0  0  0  0  0  0  0  0  0  0  0  0
    7.3085   -0.2942   39.0894 H   0  0  0  0  0  0  0  0  0  0  0  0
    9.9578   -2.9044   36.2372 H   0  0  0  0  0  0  0  0  0  0  0  0
   10.9489   -4.3746   36.4029 H   0  0  0  0  0  0  0  0  0  0  0  0
    9.7544   -4.9141   34.4640 H   0  0  0  0  0  0  0  0  0  0  0  0
    8.6238   -5.5607   35.7288 H   0  0  0  0  0  0  0  0  0  0  0  0
    8.9345   -1.9065   35.4813 H   0  0  0  0  0  0  0  0  0  0  0  0
    7.0839   -0.4186   34.6355 H   0  0  0  0  0  0  0  0  0  0  0  0
    4.9484   -3.9261   33.1500 H   0  0  0  0  0  0  0  0  0  0  0  0
    6.7954   -5.4007   33.9963 H   0  0  0  0  0  0  0  0  0  0  0  0
    4.7888    1.2105   33.9794 H   0  0  0  0  0  0  0  0  0  0  0  0
    5.4439    2.1051   32.5662 H   0  0  0  0  0  0  0  0  0  0  0  0
    3.7344    1.5534   32.5662 H   0  0  0  0  0  0  0  0  0  0  0  0
    4.5957   -1.5320   40.7031 H   0  0  0  0  0  0  0  0  0  0  0  0
    5.0993   -0.1489   39.5924 H   0  0  0  0  0  0  0  0  0  0  0  0
    3.6283   -1.7517   37.8591 H   0  0  0  0  0  0  0  0  0  0  0  0
    3.2976    1.4657   37.3158 H   0  0  0  0  0  0  0  0  0  0  0  0
    3.4134   -0.1961   36.7039 H   0  0  0  0  0  0  0  0  0  0  0  0
    0.7979    0.5097   37.9911 H   0  0  0  0  0  0  0  0  0  0  0  0
    1.1648    1.3989   36.4741 H   0  0  0  0  0  0  0  0  0  0  0  0
    1.1199   -0.3968   36.4741 H   0  0  0  0  0  0  0  0  0  0  0  0
    2.1849   -3.7363   40.8302 H   0  0  0  0  0  0  0  0  0  0  0  0
  2  1  2  0  0  0  0
  2 29  1  0  0  0  0
  3  2  1  0  0  0  0
  3 30  1  0  0  0  0
  4  3  2  0  0  0  0
  5  4  1  0  0  0  0
  5 31  1  0  0  0  0
  6  5  2  0  0  0  0
  6  1  1  0  0  0  0
  6 32  1  0  0  0  0
  7  4  1  0  0  0  0
  8  7  1  0  0  0  0
  8 33  1  0  0  0  0
  8 34  1  0  0  0  0
  9  8  1  0  0  0  0
  9 35  1  0  0  0  0
  9 36  1  0  0  0  0
 10  9  1  0  0  0  0
 11 10  2  0  0  0  0
 11 37  1  0  0  0  0
 12 11  1  0  0  0  0
 12 38  1  0  0  0  0
 13 12  2  0  0  0  0
 14 13  1  0  0  0  0
 14 39  1  0  0  0  0
 15 14  2  0  0  0  0
 15 10  1  0  0  0  0
 15 40  1  0  0  0  0
 16 13  1  0  0  0  0
 17 16  1  0  0  0  0
 18 17  1  0  0  0  0
 18 41  1  0  0  0  0
 18 42  1  0  0  0  0
 18 43  1  0  0  0  0
 19 17  2  0  0  0  0
 20 17  2  0  0  0  0
 21  1  1  0  0  0  0
 21 44  1  0  0  0  0
 21 45  1  0  0  0  0
 22 21  1  0  0  0  0
 22 46  1  6  0  0  0
 23 22  1  0  0  0  0
 24 23  1  0  0  0  0
 24 47  1  0  0  0  0
 24 48  1  0  0  0  0
 25 24  1  0  0  0  0
 25 49  1  0  0  0  0
 25 50  1  0  0  0  0
 25 51  1  0  0  0  0
 26 22  1  0  0  0  0
 27 26  2  0  0  0  0
 28 26  1  0  0  0  0
 28 52  1  0  0  0  0
M  END
$$$$
