LI2
 OpenBabel10022215383D

 58 62  0  0  0  0  0  0  0  0999 V2000
   -4.8890    9.4100   25.3560 C   0  0  0  0  0  0  0  0  0  0  0  0
   -5.8700    9.4810   24.3520 C   0  0  0  0  0  0  0  0  0  0  0  0
   -6.6180   10.6260   24.1400 C   0  0  0  0  0  0  0  0  0  0  0  0
   -6.3910   11.7470   24.9230 C   0  0  0  0  0  0  0  0  0  0  0  0
   -6.9630   13.0020   24.9640 N   0  0  0  0  0  0  0  0  0  0  0  0
   -6.3630   13.7400   25.9570 C   0  0  0  0  0  0  0  0  0  0  0  0
   -5.4110   13.0070   26.5700 C   0  0  0  0  0  0  0  0  0  0  0  0
   -5.4030   11.6890   25.9320 C   0  0  0  0  0  0  0  0  0  0  0  0
   -4.6420   10.5220   26.1390 C   0  0  0  0  0  0  0  0  0  0  0  0
   -4.1620    8.2140   25.5160 N   0  0  0  0  0  0  0  0  0  0  0  0
   -4.5220    7.1530   26.2950 C   0  0  0  0  0  0  0  0  0  0  0  0
   -5.5450    7.1100   26.9570 O   0  0  0  0  0  0  0  0  0  0  0  0
   -3.6450    5.9510   26.2760 C   0  0  0  0  0  0  0  0  0  0  0  0
   -3.1680    5.4670   25.0490 C   0  0  0  0  0  0  0  0  0  0  0  0
   -2.3390    4.3410   24.9660 C   0  0  0  0  0  0  0  0  0  0  0  0
   -1.9630    3.7530   26.1780 C   0  0  0  0  0  0  0  0  0  0  0  0
   -2.4330    4.2230   27.3990 C   0  0  0  0  0  0  0  0  0  0  0  0
   -3.2730    5.3210   27.4630 C   0  0  0  0  0  0  0  0  0  0  0  0
   -2.0730    3.6100   28.5450 F   0  0  0  0  0  0  0  0  0  0  0  0
   -1.8320    3.8770   23.7120 N   0  0  0  0  0  0  0  0  0  0  0  0
   -2.8200    3.2760   22.7990 C   0  0  0  0  0  0  0  0  0  0  0  0
   -2.2040    3.1540   21.4080 C   0  0  0  0  0  0  0  0  0  0  0  0
   -1.0550    2.2920   21.4700 O   0  0  0  0  0  0  0  0  0  0  0  0
   -0.0630    2.8920   22.3080 C   0  0  0  0  0  0  0  0  0  0  0  0
   -0.5910    3.0700   23.7360 C   0  0  0  0  0  0  0  0  0  0  0  0
   -4.5220   13.4340   27.7130 C   0  0  0  0  0  0  0  0  0  0  0  0
   -5.3790   13.8450   28.9110 C   0  0  0  0  0  0  0  0  0  0  0  0
   -5.6330   12.6800   29.8360 C   0  0  0  0  0  0  0  0  0  0  0  0
   -6.7580   11.8710   29.6940 C   0  0  0  0  0  0  0  0  0  0  0  0
   -6.9490   10.8110   30.5700 C   0  0  0  0  0  0  0  0  0  0  0  0
   -6.0810   10.5690   31.5450 N   0  0  0  0  0  0  0  0  0  0  0  0
   -5.0050   11.3180   31.7070 C   0  0  0  0  0  0  0  0  0  0  0  0
   -4.7460   12.3920   30.8700 C   0  0  0  0  0  0  0  0  0  0  0  0
   -6.0484    8.6011   23.7164 H   0  0  0  0  0  0  0  0  0  0  0  0
   -7.3881   10.6463   23.3548 H   0  0  0  0  0  0  0  0  0  0  0  0
   -7.7194   13.3334   24.3484 H   0  0  0  0  0  0  0  0  0  0  0  0
   -6.6219   14.7777   26.2142 H   0  0  0  0  0  0  0  0  0  0  0  0
   -3.8614   10.4959   26.9136 H   0  0  0  0  0  0  0  0  0  0  0  0
   -3.2762    8.1328   24.9966 H   0  0  0  0  0  0  0  0  0  0  0  0
   -3.4538    5.9878   24.1232 H   0  0  0  0  0  0  0  0  0  0  0  0
   -1.2758    2.8942   26.1647 H   0  0  0  0  0  0  0  0  0  0  0  0
   -3.6403    5.6898   28.4321 H   0  0  0  0  0  0  0  0  0  0  0  0
   -3.1017    2.2780   23.1661 H   0  0  0  0  0  0  0  0  0  0  0  0
   -3.7170    3.9111   22.7530 H   0  0  0  0  0  0  0  0  0  0  0  0
   -2.9446    2.7294   20.7143 H   0  0  0  0  0  0  0  0  0  0  0  0
   -1.8988    4.1491   21.0521 H   0  0  0  0  0  0  0  0  0  0  0  0
    0.8277    2.2470   22.3308 H   0  0  0  0  0  0  0  0  0  0  0  0
    0.1908    3.8816   21.9003 H   0  0  0  0  0  0  0  0  0  0  0  0
   -0.8049    2.0832   24.1725 H   0  0  0  0  0  0  0  0  0  0  0  0
    0.1674    3.5859   24.3432 H   0  0  0  0  0  0  0  0  0  0  0  0
   -3.8699   12.5963   28.0009 H   0  0  0  0  0  0  0  0  0  0  0  0
   -3.9082   14.2897   27.3953 H   0  0  0  0  0  0  0  0  0  0  0  0
   -4.8573   14.6368   29.4686 H   0  0  0  0  0  0  0  0  0  0  0  0
   -6.3482   14.2040   28.5346 H   0  0  0  0  0  0  0  0  0  0  0  0
   -7.4880   12.0701   28.8956 H   0  0  0  0  0  0  0  0  0  0  0  0
   -7.8307   10.1634   30.4548 H   0  0  0  0  0  0  0  0  0  0  0  0
   -4.3021   11.0852   32.5205 H   0  0  0  0  0  0  0  0  0  0  0  0
   -3.8490   13.0105   31.0210 H   0  0  0  0  0  0  0  0  0  0  0  0
  2  1  2  0  0  0  0
  2 34  1  0  0  0  0
  3  2  1  0  0  0  0
  3 35  1  0  0  0  0
  4  3  2  0  0  0  0
  5  4  1  0  0  0  0
  5 36  1  0  0  0  0
  6  5  1  0  0  0  0
  6 37  1  0  0  0  0
  7  6  2  0  0  0  0
  8  4  1  0  0  0  0
  8  7  1  0  0  0  0
  9  1  1  0  0  0  0
  9  8  2  0  0  0  0
  9 38  1  0  0  0  0
 10  1  1  0  0  0  0
 10 39  1  0  0  0  0
 11 10  1  0  0  0  0
 12 11  2  0  0  0  0
 13 11  1  0  0  0  0
 14 13  2  0  0  0  0
 14 40  1  0  0  0  0
 15 14  1  0  0  0  0
 16 15  2  0  0  0  0
 16 41  1  0  0  0  0
 17 16  1  0  0  0  0
 18 17  2  0  0  0  0
 18 13  1  0  0  0  0
 18 42  1  0  0  0  0
 19 17  1  0  0  0  0
 20 15  1  0  0  0  0
 21 20  1  0  0  0  0
 21 43  1  0  0  0  0
 21 44  1  0  0  0  0
 22 21  1  0  0  0  0
 22 45  1  0  0  0  0
 22 46  1  0  0  0  0
 23 22  1  0  0  0  0
 24 23  1  0  0  0  0
 24 47  1  0  0  0  0
 24 48  1  0  0  0  0
 25 24  1  0  0  0  0
 25 20  1  0  0  0  0
 25 49  1  0  0  0  0
 25 50  1  0  0  0  0
 26  7  1  0  0  0  0
 26 51  1  0  0  0  0
 26 52  1  0  0  0  0
 27 26  1  0  0  0  0
 27 53  1  0  0  0  0
 27 54  1  0  0  0  0
 28 27  1  0  0  0  0
 29 28  2  0  0  0  0
 29 55  1  0  0  0  0
 30 29  1  0  0  0  0
 30 56  1  0  0  0  0
 31 30  2  0  0  0  0
 32 31  1  0  0  0  0
 32 57  1  0  0  0  0
 33 28  1  0  0  0  0
 33 32  2  0  0  0  0
 33 58  1  0  0  0  0
M  END
$$$$
