DRJ
 OpenBabel10252216173D

 69 71  0  0  0  0  0  0  0  0999 V2000
    3.5790   -3.8720   41.2360 N   0  0  0  0  0  0  0  0  0  0  0  0
    4.8600   -3.8460   41.9670 C   0  0  0  0  0  0  0  0  0  0  0  0
    5.6960   -5.0810   41.6210 C   0  0  0  0  0  0  0  0  0  0  0  0
    6.6860   -4.8290   40.4810 C   0  0  0  0  0  0  0  0  0  0  0  0
    7.0310   -3.3360   40.4190 C   0  0  0  0  0  0  0  0  0  0  0  0
    8.3440   -3.0910   39.6680 C   0  0  0  0  0  0  0  0  0  0  0  0
    8.4200   -1.6240   39.2290 C   0  0  0  0  0  0  0  0  0  0  0  0
    7.1270   -1.1870   38.5370 C   0  0  0  0  0  0  0  0  0  0  0  0
    2.7140   -5.0550   41.2990 C   0  0  0  0  0  0  0  0  0  0  0  0
    1.9080   -5.0310   42.6010 C   0  0  0  0  0  0  0  0  0  0  0  0
    2.5820   -5.9330   43.6330 C   0  0  0  0  0  0  0  0  0  0  0  0
    2.9230   -7.2340   43.2840 C   0  0  0  0  0  0  0  0  0  0  0  0
    3.6510   -8.0260   44.1700 C   0  0  0  0  0  0  0  0  0  0  0  0
    4.0380   -7.5170   45.4060 C   0  0  0  0  0  0  0  0  0  0  0  0
    3.6760   -6.2170   45.7600 C   0  0  0  0  0  0  0  0  0  0  0  0
    2.9490   -5.4250   44.8780 C   0  0  0  0  0  0  0  0  0  0  0  0
    4.7760   -8.3090   46.2350 O   0  0  0  0  0  0  0  0  0  0  0  0
    6.2080   -8.2280   46.2410 C   0  0  2  0  0  0  0  0  0  0  0  0
    6.6550   -6.9040   46.8690 C   0  0  0  0  0  0  0  0  0  0  0  0
    6.6730   -8.3170   44.7840 C   0  0  0  0  0  0  0  0  0  0  0  0
    7.3860   -7.0520   44.2960 C   0  0  0  0  0  0  0  0  0  0  0  0
    6.7980   -9.4120   47.0130 C   0  0  0  0  0  0  0  0  0  0  0  0
    8.0390   -9.5530   46.9990 O   0  0  0  0  0  0  0  0  0  0  0  0
    5.9840  -10.1520   47.6100 O   0  0  0  0  0  0  0  0  0  0  0  0
    3.1360   -2.8350   40.5370 C   0  0  0  0  0  0  0  0  0  0  0  0
    1.9020   -2.6270   40.0940 N   0  0  0  0  0  0  0  0  0  0  0  0
    1.8900   -1.4880   39.3990 C   0  0  0  0  0  0  0  0  0  0  0  0
    0.8840   -0.8090   38.7340 C   0  0  0  0  0  0  0  0  0  0  0  0
    3.1820   -0.9610   39.4070 C   0  0  0  0  0  0  0  0  0  0  0  0
    1.1620    0.3930   38.0750 C   0  0  0  0  0  0  0  0  0  0  0  0
    2.4470    0.9130   38.0850 C   0  0  0  0  0  0  0  0  0  0  0  0
    3.4640    0.2300   38.7570 C   0  0  0  0  0  0  0  0  0  0  0  0
    3.9560   -1.8210   40.1310 O   0  0  0  0  0  0  0  0  0  0  0  0
    5.4184   -2.9403   41.6880 H   0  0  0  0  0  0  0  0  0  0  0  0
    4.6546   -3.8450   43.0477 H   0  0  0  0  0  0  0  0  0  0  0  0
    6.2601   -5.3849   42.5151 H   0  0  0  0  0  0  0  0  0  0  0  0
    5.0022   -5.8671   41.2883 H   0  0  0  0  0  0  0  0  0  0  0  0
    7.6034   -5.4096   40.6579 H   0  0  0  0  0  0  0  0  0  0  0  0
    6.2320   -5.1386   39.5281 H   0  0  0  0  0  0  0  0  0  0  0  0
    6.2193   -2.8033   39.9020 H   0  0  0  0  0  0  0  0  0  0  0  0
    7.1497   -2.9673   41.4486 H   0  0  0  0  0  0  0  0  0  0  0  0
    9.1923   -3.3194   40.3299 H   0  0  0  0  0  0  0  0  0  0  0  0
    8.3837   -3.7401   38.7808 H   0  0  0  0  0  0  0  0  0  0  0  0
    8.5845   -0.9924   40.1144 H   0  0  0  0  0  0  0  0  0  0  0  0
    9.2509   -1.5158   38.5163 H   0  0  0  0  0  0  0  0  0  0  0  0
    6.3729   -0.9321   39.2962 H   0  0  0  0  0  0  0  0  0  0  0  0
    7.3269   -0.3065   37.9087 H   0  0  0  0  0  0  0  0  0  0  0  0
    6.7518   -2.0082   37.9087 H   0  0  0  0  0  0  0  0  0  0  0  0
    2.0251   -5.0513   40.4415 H   0  0  0  0  0  0  0  0  0  0  0  0
    3.3334   -5.9635   41.2686 H   0  0  0  0  0  0  0  0  0  0  0  0
    1.8643   -4.0016   42.9864 H   0  0  0  0  0  0  0  0  0  0  0  0
    0.8876   -5.3934   42.4076 H   0  0  0  0  0  0  0  0  0  0  0  0
    2.6182   -7.6391   42.3078 H   0  0  0  0  0  0  0  0  0  0  0  0
    3.9203   -9.0556   43.8917 H   0  0  0  0  0  0  0  0  0  0  0  0
    3.9672   -5.8163   46.7422 H   0  0  0  0  0  0  0  0  0  0  0  0
    2.6645   -4.4011   45.1619 H   0  0  0  0  0  0  0  0  0  0  0  0
    6.6260   -6.9899   47.9653 H   0  0  0  0  0  0  0  0  0  0  0  0
    7.6809   -6.6730   46.5463 H   0  0  0  0  0  0  0  0  0  0  0  0
    5.9790   -6.0984   46.5463 H   0  0  0  0  0  0  0  0  0  0  0  0
    7.3658   -9.1663   44.6901 H   0  0  0  0  0  0  0  0  0  0  0  0
    5.7741   -8.4439   44.1628 H   0  0  0  0  0  0  0  0  0  0  0  0
    7.7189   -6.4614   45.1623 H   0  0  0  0  0  0  0  0  0  0  0  0
    8.2580   -7.3341   43.6877 H   0  0  0  0  0  0  0  0  0  0  0  0
    6.6931   -6.4521   43.6877 H   0  0  0  0  0  0  0  0  0  0  0  0
    6.3098  -10.9323   48.1249 H   0  0  0  0  0  0  0  0  0  0  0  0
   -0.1379   -1.2161   38.7237 H   0  0  0  0  0  0  0  0  0  0  0  0
    0.3584    0.9274   37.5471 H   0  0  0  0  0  0  0  0  0  0  0  0
    2.6649    1.8584   37.5666 H   0  0  0  0  0  0  0  0  0  0  0  0
    4.4860    0.6367   38.7701 H   0  0  0  0  0  0  0  0  0  0  0  0
  2  1  1  0  0  0  0
  2 34  1  0  0  0  0
  2 35  1  0  0  0  0
  3  2  1  0  0  0  0
  3 36  1  0  0  0  0
  3 37  1  0  0  0  0
  4  3  1  0  0  0  0
  4 38  1  0  0  0  0
  4 39  1  0  0  0  0
  5  4  1  0  0  0  0
  5 40  1  0  0  0  0
  5 41  1  0  0  0  0
  6  5  1  0  0  0  0
  6 42  1  0  0  0  0
  6 43  1  0  0  0  0
  7  6  1  0  0  0  0
  7 44  1  0  0  0  0
  7 45  1  0  0  0  0
  8  7  1  0  0  0  0
  8 46  1  0  0  0  0
  8 47  1  0  0  0  0
  8 48  1  0  0  0  0
  9  1  1  0  0  0  0
  9 49  1  0  0  0  0
  9 50  1  0  0  0  0
 10  9  1  0  0  0  0
 10 51  1  0  0  0  0
 10 52  1  0  0  0  0
 11 10  1  0  0  0  0
 12 11  2  0  0  0  0
 12 53  1  0  0  0  0
 13 12  1  0  0  0  0
 13 54  1  0  0  0  0
 14 13  2  0  0  0  0
 15 14  1  0  0  0  0
 15 55  1  0  0  0  0
 16 15  2  0  0  0  0
 16 11  1  0  0  0  0
 16 56  1  0  0  0  0
 17 14  1  0  0  0  0
 18 17  1  1  0  0  0
 19 18  1  0  0  0  0
 19 57  1  0  0  0  0
 19 58  1  0  0  0  0
 19 59  1  0  0  0  0
 20 18  1  0  0  0  0
 20 60  1  0  0  0  0
 20 61  1  0  0  0  0
 21 20  1  0  0  0  0
 21 62  1  0  0  0  0
 21 63  1  0  0  0  0
 21 64  1  0  0  0  0
 22 18  1  0  0  0  0
 23 22  2  0  0  0  0
 24 22  1  0  0  0  0
 24 65  1  0  0  0  0
 25  1  1  0  0  0  0
 26 25  2  0  0  0  0
 27 26  1  0  0  0  0
 28 27  2  0  0  0  0
 28 66  1  0  0  0  0
 29 27  1  0  0  0  0
 30 28  1  0  0  0  0
 30 67  1  0  0  0  0
 31 30  2  0  0  0  0
 31 68  1  0  0  0  0
 32 31  1  0  0  0  0
 32 29  2  0  0  0  0
 32 69  1  0  0  0  0
 33 29  1  0  0  0  0
 33 25  1  0  0  0  0
M  END
$$$$
