6NH
 OpenBabel05132215263D

 38 41  0  0  0  0  0  0  0  0999 V2000
   32.5780    6.6540    3.3180 C   0  0  0  0  0  0  0  0  0  0  0  0
   31.2560    6.7340    3.7320 C   0  0  0  0  0  0  0  0  0  0  0  0
   30.6580    7.8990    4.1710 O   0  0  0  0  0  0  0  0  0  0  0  0
   30.7730    5.4220    3.6000 C   0  0  0  0  0  0  0  0  0  0  0  0
   31.7210    4.5750    3.1770 N   0  0  0  0  0  0  0  0  0  0  0  0
   32.9010    5.3970    3.0150 N   0  0  0  0  0  0  0  0  0  0  0  0
   29.4680    5.0600    4.0100 C   0  0  0  0  0  0  0  0  0  0  0  0
   28.8900    5.6760    5.1240 C   0  0  0  0  0  0  0  0  0  0  0  0
   27.6140    5.2950    5.5240 C   0  0  0  0  0  0  0  0  0  0  0  0
   26.9190    4.3200    4.8250 C   0  0  0  0  0  0  0  0  0  0  0  0
   27.5010    3.7070    3.7110 C   0  0  0  0  0  0  0  0  0  0  0  0
   28.7940    4.0760    3.2890 C   0  0  0  0  0  0  0  0  0  0  0  0
   33.4220    7.7930    3.2360 C   0  0  0  0  0  0  0  0  0  0  0  0
   33.3280    8.5920    2.1580 N   0  0  0  0  0  0  0  0  0  0  0  0
   34.2940    9.4470    2.3980 C   0  0  0  0  0  0  0  0  0  0  0  0
   34.6530   10.5000    1.5630 C   0  0  0  0  0  0  0  0  0  0  0  0
   34.9260    9.1450    3.5790 C   0  0  0  0  0  0  0  0  0  0  0  0
   35.7330   11.2870    1.9610 C   0  0  0  0  0  0  0  0  0  0  0  0
   36.3950   10.9730    3.1750 C   0  0  0  0  0  0  0  0  0  0  0  0
   36.0090    9.9150    4.0130 C   0  0  0  0  0  0  0  0  0  0  0  0
   34.3760    8.0630    4.1460 N   0  0  0  0  0  0  0  0  0  0  0  0
   37.5070   11.7480    3.5310 C   0  0  0  0  0  0  0  0  0  0  0  0
   38.2420   11.3900    4.5720 N   0  0  0  0  0  0  0  0  0  0  0  0
   37.8920   12.8330    2.8140 N   0  0  0  0  0  0  0  0  0  0  0  0
   31.1469    8.6981    4.1904 H   0  0  0  0  0  0  0  0  0  0  0  0
   31.6342    3.6082    3.0128 H   0  0  0  0  0  0  0  0  0  0  0  0
   29.4042    6.4047    5.6432 H   0  0  0  0  0  0  0  0  0  0  0  0
   27.1809    5.7414    6.3475 H   0  0  0  0  0  0  0  0  0  0  0  0
   25.9710    4.0463    5.1272 H   0  0  0  0  0  0  0  0  0  0  0  0
   26.9807    2.9803    3.1950 H   0  0  0  0  0  0  0  0  0  0  0  0
   29.2304    3.6292    2.4675 H   0  0  0  0  0  0  0  0  0  0  0  0
   32.7049    8.5475    1.3971 H   0  0  0  0  0  0  0  0  0  0  0  0
   34.1421   10.6905    0.6868 H   0  0  0  0  0  0  0  0  0  0  0  0
   36.0447   12.0830    1.3829 H   0  0  0  0  0  0  0  0  0  0  0  0
   36.4976    9.7167    4.9001 H   0  0  0  0  0  0  0  0  0  0  0  0
   37.9852   10.6063    5.1097 H   0  0  0  0  0  0  0  0  0  0  0  0
   37.3634   13.1211    2.0350 H   0  0  0  0  0  0  0  0  0  0  0  0
   38.7000   13.3325    3.0726 H   0  0  0  0  0  0  0  0  0  0  0  0
  2  1  1  0  0  0  0
  3  2  1  0  0  0  0
  3 25  1  0  0  0  0
  4  2  2  0  0  0  0
  5  4  1  0  0  0  0
  5 26  1  0  0  0  0
  6  5  1  0  0  0  0
  6  1  2  0  0  0  0
  7  4  1  0  0  0  0
  8  7  2  0  0  0  0
  8 27  1  0  0  0  0
  9  8  1  0  0  0  0
  9 28  1  0  0  0  0
 10  9  2  0  0  0  0
 10 29  1  0  0  0  0
 11 10  1  0  0  0  0
 11 30  1  0  0  0  0
 12 11  2  0  0  0  0
 12  7  1  0  0  0  0
 12 31  1  0  0  0  0
 13  1  1  0  0  0  0
 14 13  1  0  0  0  0
 14 32  1  0  0  0  0
 15 14  1  0  0  0  0
 16 15  2  0  0  0  0
 16 33  1  0  0  0  0
 17 15  1  0  0  0  0
 18 16  1  0  0  0  0
 18 34  1  0  0  0  0
 19 18  2  0  0  0  0
 20 17  2  0  0  0  0
 20 19  1  0  0  0  0
 20 35  1  0  0  0  0
 21 17  1  0  0  0  0
 21 13  2  0  0  0  0
 22 19  1  0  0  0  0
 23 22  2  0  0  0  0
 23 36  1  0  0  0  0
 24 22  1  0  0  0  0
 24 37  1  0  0  0  0
 24 38  1  0  0  0  0
M  END
$$$$
