FXV
 OpenBabel06072218573D

 60 62  0  0  0  0  0  0  0  0999 V2000
    6.5720    7.5690   22.5140 C   0  0  1  0  0  0  0  0  0  0  0  0
    5.4450    8.4210   21.8920 C   0  0  0  0  0  0  0  0  0  0  0  0
    6.6230    6.3220   21.7940 N   0  0  0  0  0  0  0  0  0  0  0  0
    5.7810    5.2970   22.0320 C   0  0  0  0  0  0  0  0  0  0  0  0
    4.8990    5.3430   22.9100 O   0  0  0  0  0  0  0  0  0  0  0  0
    5.9690    4.1420   21.1610 C   0  0  0  0  0  0  0  0  0  0  0  0
    6.9870    3.1170   21.3800 C   0  0  0  0  0  0  0  0  0  0  0  0
    7.1010    2.0300   20.4490 C   0  0  0  0  0  0  0  0  0  0  0  0
    6.2450    1.9080   19.3010 C   0  0  0  0  0  0  0  0  0  0  0  0
    5.2470    2.9190   19.1010 C   0  0  0  0  0  0  0  0  0  0  0  0
    5.1130    4.0110   20.0090 C   0  0  0  0  0  0  0  0  0  0  0  0
    6.4010    0.7700   18.3370 C   0  0  0  0  0  0  0  0  0  0  0  0
    7.7040    0.3280   17.9330 C   0  0  0  0  0  0  0  0  0  0  0  0
    7.8010   -0.7650   17.0200 C   0  0  0  0  0  0  0  0  0  0  0  0
    6.6890   -1.4250   16.5030 N   0  3  0  0  0  0  0  0  0  0  0  0
    6.8620   -2.4610   15.6350 O   0  5  0  0  0  0  0  0  0  0  0  0
    5.4360   -1.0120   16.8840 C   0  0  0  0  0  0  0  0  0  0  0  0
    5.2560    0.0790   17.7970 C   0  0  0  0  0  0  0  0  0  0  0  0
    7.9980    8.2330   22.4570 C   0  0  2  0  0  0  0  0  0  0  0  0
    8.3760    8.7670   23.8510 C   0  0  0  0  0  0  0  0  0  0  0  0
    8.0380    9.8210   24.2650 O   0  0  0  0  0  0  0  0  0  0  0  0
    9.1280    7.8690   24.5430 O   0  0  0  0  0  0  0  0  0  0  0  0
    9.2720    7.9260   25.9640 C   0  0  0  0  0  0  0  0  0  0  0  0
    8.1310    9.3760   21.3510 C   0  0  0  0  0  0  0  0  0  0  0  0
    8.4440    8.9050   19.9220 C   0  0  0  0  0  0  0  0  0  0  0  0
    7.6830    9.3500   18.7540 C   0  0  0  0  0  0  0  0  0  0  0  0
    8.0100    8.8740   17.4110 C   0  0  0  0  0  0  0  0  0  0  0  0
    9.1130    7.9410   17.2560 C   0  0  0  0  0  0  0  0  0  0  0  0
    9.8620    7.5000   18.3940 C   0  0  0  0  0  0  0  0  0  0  0  0
    9.5300    7.9750   19.7120 C   0  0  0  0  0  0  0  0  0  0  0  0
    7.2520    9.3180   16.2390 C   0  0  0  0  0  0  0  0  0  0  0  0
    6.1070    9.9950   16.3590 N   0  3  0  0  0  0  0  0  0  0  0  0
    7.7230    9.0400   15.0100 N   0  0  0  0  0  0  0  0  0  0  0  0
    6.3320    7.4460   23.5804 H   0  0  0  0  0  0  0  0  0  0  0  0
    4.8440    8.8754   22.6934 H   0  0  0  0  0  0  0  0  0  0  0  0
    5.8856    9.2138   21.2697 H   0  0  0  0  0  0  0  0  0  0  0  0
    4.8023    7.7809   21.2697 H   0  0  0  0  0  0  0  0  0  0  0  0
    7.3381    6.2084   21.0614 H   0  0  0  0  0  0  0  0  0  0  0  0
    7.6589    3.1775   22.2489 H   0  0  0  0  0  0  0  0  0  0  0  0
    7.8709    1.2633   20.6205 H   0  0  0  0  0  0  0  0  0  0  0  0
    4.5742    2.8510   18.2334 H   0  0  0  0  0  0  0  0  0  0  0  0
    4.3386    4.7704   19.8257 H   0  0  0  0  0  0  0  0  0  0  0  0
    8.6090    0.8205   18.3183 H   0  0  0  0  0  0  0  0  0  0  0  0
    8.8013   -1.1018   16.7102 H   0  0  0  0  0  0  0  0  0  0  0  0
    4.5525   -1.5285   16.4807 H   0  0  0  0  0  0  0  0  0  0  0  0
    4.2413    0.3899   18.0865 H   0  0  0  0  0  0  0  0  0  0  0  0
    8.7052    7.4474   22.1525 H   0  0  0  0  0  0  0  0  0  0  0  0
    8.3503    7.5612   26.4409 H   0  0  0  0  0  0  0  0  0  0  0  0
   10.1188    7.2952   26.2723 H   0  0  0  0  0  0  0  0  0  0  0  0
    9.4577    8.9654   26.2723 H   0  0  0  0  0  0  0  0  0  0  0  0
    7.1794    9.9270   21.3218 H   0  0  0  0  0  0  0  0  0  0  0  0
    8.9963    9.9822   21.6571 H   0  0  0  0  0  0  0  0  0  0  0  0
    6.8498   10.0554   18.8890 H   0  0  0  0  0  0  0  0  0  0  0  0
    9.3753    7.5697   16.2544 H   0  0  0  0  0  0  0  0  0  0  0  0
   10.6954    6.7946   18.2605 H   0  0  0  0  0  0  0  0  0  0  0  0
   10.1140    7.6234   20.5753 H   0  0  0  0  0  0  0  0  0  0  0  0
    5.5952   10.2946   15.5169 H   0  0  0  0  0  0  0  0  0  0  0  0
    5.7358   10.2175   17.2937 H   0  0  0  0  0  0  0  0  0  0  0  0
    7.2005    9.3461   14.1768 H   0  0  0  0  0  0  0  0  0  0  0  0
    8.6062    8.5211   14.9022 H   0  0  0  0  0  0  0  0  0  0  0  0
  1 34  1  1  0  0  0
  2  1  1  0  0  0  0
  2 35  1  0  0  0  0
  2 36  1  0  0  0  0
  2 37  1  0  0  0  0
  3  1  1  0  0  0  0
  3 38  1  0  0  0  0
  4  3  1  0  0  0  0
  5  4  2  0  0  0  0
  6  4  1  0  0  0  0
  7  6  2  0  0  0  0
  7 39  1  0  0  0  0
  8  7  1  0  0  0  0
  8 40  1  0  0  0  0
  9  8  2  0  0  0  0
 10  9  1  0  0  0  0
 10 41  1  0  0  0  0
 11 10  2  0  0  0  0
 11  6  1  0  0  0  0
 11 42  1  0  0  0  0
 12  9  1  0  0  0  0
 13 12  2  0  0  0  0
 13 43  1  0  0  0  0
 14 13  1  0  0  0  0
 14 44  1  0  0  0  0
 15 14  2  0  0  0  0
 16 15  1  0  0  0  0
 17 15  1  0  0  0  0
 17 45  1  0  0  0  0
 18 17  2  0  0  0  0
 18 12  1  0  0  0  0
 18 46  1  0  0  0  0
 19  1  1  0  0  0  0
 19 47  1  6  0  0  0
 20 19  1  0  0  0  0
 21 20  2  0  0  0  0
 22 20  1  0  0  0  0
 23 22  1  0  0  0  0
 23 48  1  0  0  0  0
 23 49  1  0  0  0  0
 23 50  1  0  0  0  0
 24 19  1  0  0  0  0
 24 51  1  0  0  0  0
 24 52  1  0  0  0  0
 25 24  1  0  0  0  0
 26 25  2  0  0  0  0
 26 53  1  0  0  0  0
 27 26  1  0  0  0  0
 28 27  2  0  0  0  0
 28 54  1  0  0  0  0
 29 28  1  0  0  0  0
 29 55  1  0  0  0  0
 30 29  2  0  0  0  0
 30 25  1  0  0  0  0
 30 56  1  0  0  0  0
 31 27  1  0  0  0  0
 32 31  2  0  0  0  0
 32 57  1  0  0  0  0
 32 58  1  0  0  0  0
 33 31  1  0  0  0  0
 33 59  1  0  0  0  0
 33 60  1  0  0  0  0
M  CHG  3  15   1  16  -1  32   1
M  END
$$$$
