QWE
 OpenBabel11082214543D

 82 85  0  0  0  0  0  0  0  0999 V2000
   18.9360  -15.1440   22.6140 C   0  0  2  0  0  0  0  0  0  0  0  0
   19.8170  -14.1090   21.9080 C   0  0  0  0  0  0  0  0  0  0  0  0
   20.9650  -14.0320   22.3380 O   0  0  0  0  0  0  0  0  0  0  0  0
   19.2710  -13.2350   20.9290 N   0  0  0  0  0  0  0  0  0  0  0  0
   17.7210  -13.2630   20.7540 C   0  0  2  0  0  0  0  0  0  0  0  0
   20.1760  -12.1530   20.2860 C   0  0  0  0  0  0  0  0  0  0  0  0
   17.5040  -13.2610   19.2340 C   0  0  0  0  0  0  0  0  0  0  0  0
   18.3560  -12.0910   18.4720 C   0  0  0  0  0  0  0  0  0  0  0  0
   19.9310  -12.1180   18.8000 C   0  0  0  0  0  0  0  0  0  0  0  0
   17.0440  -12.2150   21.2900 C   0  0  0  0  0  0  0  0  0  0  0  0
   15.5070  -12.4400   21.5420 C   0  0  0  0  0  0  0  0  0  0  0  0
   14.8000  -11.2660   20.9720 C   0  0  0  0  0  0  0  0  0  0  0  0
   15.3880  -10.4670   20.3030 O   0  0  0  0  0  0  0  0  0  0  0  0
   13.3360  -11.0140   21.2760 C   0  0  0  0  0  0  0  0  0  0  0  0
   12.9410   -9.5910   22.2160 S   0  0  0  0  0  0  0  0  0  0  0  0
   11.7020  -10.5540   22.9430 C   0  0  0  0  0  0  0  0  0  0  0  0
   11.6660  -11.8200   22.3950 C   0  0  0  0  0  0  0  0  0  0  0  0
   12.5560  -12.0990   21.4140 N   0  0  0  0  0  0  0  0  0  0  0  0
   18.3330  -14.5910   23.8980 C   0  0  0  0  0  0  0  0  0  0  0  0
   18.4170  -15.5760   25.0650 C   0  0  0  0  0  0  0  0  0  0  0  0
   18.9840  -14.8660   26.2870 C   0  0  0  0  0  0  0  0  0  0  0  0
   19.5730  -13.6340   25.8070 N   0  0  0  0  0  0  0  0  0  0  0  0
   20.8420  -13.2690   25.7960 C   0  0  0  0  0  0  0  0  0  0  0  0
   21.7820  -14.1420   26.1640 N   0  3  0  0  0  0  0  0  0  0  0  0
   21.1400  -12.0610   25.3370 N   0  0  0  0  0  0  0  0  0  0  0  0
   19.8480  -16.2860   22.9330 N   0  0  0  0  0  0  0  0  0  0  0  0
   19.2030  -17.8930   22.1370 S   0  0  0  0  0  0  0  0  0  0  0  0
   19.5740  -19.0190   23.0130 O   0  0  0  0  0  0  0  0  0  0  0  0
   19.9240  -17.5610   20.8950 O   0  0  0  0  0  0  0  0  0  0  0  0
   17.3480  -18.0250   22.4080 C   0  0  0  0  0  0  0  0  0  0  0  0
   16.9280  -18.4940   23.6760 C   0  0  0  0  0  0  0  0  0  0  0  0
   15.5820  -18.5840   23.9200 C   0  0  0  0  0  0  0  0  0  0  0  0
   14.6640  -18.2010   22.9320 C   0  0  0  0  0  0  0  0  0  0  0  0
   15.0600  -17.7050   21.6960 C   0  0  0  0  0  0  0  0  0  0  0  0
   14.1820  -17.2280   20.7610 C   0  0  0  0  0  0  0  0  0  0  0  0
   16.4800  -17.6190   21.4200 C   0  0  0  0  0  0  0  0  0  0  0  0
   14.6400  -16.7050   19.5700 C   0  0  0  0  0  0  0  0  0  0  0  0
   16.0240  -16.7050   19.3000 C   0  0  0  0  0  0  0  0  0  0  0  0
   16.9410  -17.1400   20.2240 C   0  0  0  0  0  0  0  0  0  0  0  0
   12.8240  -17.1170   21.0600 N   0  0  0  0  0  0  0  0  0  0  0  0
   11.7990  -18.1020   20.6380 C   0  0  0  0  0  0  0  0  0  0  0  0
   12.0920  -15.6900   21.1550 C   0  0  0  0  0  0  0  0  0  0  0  0
   18.0904  -15.4394   21.9755 H   0  0  0  0  0  0  0  0  0  0  0  0
   17.3289  -14.1401   21.2896 H   0  0  0  0  0  0  0  0  0  0  0  0
   19.9397  -11.1705   20.7206 H   0  0  0  0  0  0  0  0  0  0  0  0
   21.2319  -12.3929   20.4799 H   0  0  0  0  0  0  0  0  0  0  0  0
   17.8133  -14.2378   18.8338 H   0  0  0  0  0  0  0  0  0  0  0  0
   16.4370  -13.0642   19.0527 H   0  0  0  0  0  0  0  0  0  0  0  0
   18.2253  -12.2172   17.3871 H   0  0  0  0  0  0  0  0  0  0  0  0
   17.9697  -11.1263   18.8326 H   0  0  0  0  0  0  0  0  0  0  0  0
   20.3780  -13.0122   18.3412 H   0  0  0  0  0  0  0  0  0  0  0  0
   20.3880  -11.2042   18.3924 H   0  0  0  0  0  0  0  0  0  0  0  0
   17.5109  -11.9719   22.2559 H   0  0  0  0  0  0  0  0  0  0  0  0
   17.1063  -11.4098   20.5431 H   0  0  0  0  0  0  0  0  0  0  0  0
   15.1729  -13.3616   21.0431 H   0  0  0  0  0  0  0  0  0  0  0  0
   15.2953  -12.5435   22.6165 H   0  0  0  0  0  0  0  0  0  0  0  0
   11.0295  -10.2027   23.7394 H   0  0  0  0  0  0  0  0  0  0  0  0
   10.9426  -12.5727   22.7417 H   0  0  0  0  0  0  0  0  0  0  0  0
   18.8734  -13.6733   24.1732 H   0  0  0  0  0  0  0  0  0  0  0  0
   17.2677  -14.3955   23.7060 H   0  0  0  0  0  0  0  0  0  0  0  0
   17.4115  -15.9577   25.2961 H   0  0  0  0  0  0  0  0  0  0  0  0
   19.0730  -16.4153   24.7907 H   0  0  0  0  0  0  0  0  0  0  0  0
   18.1815  -14.6487   27.0072 H   0  0  0  0  0  0  0  0  0  0  0  0
   19.7294  -15.4906   26.8011 H   0  0  0  0  0  0  0  0  0  0  0  0
   18.9104  -12.9467   25.4204 H   0  0  0  0  0  0  0  0  0  0  0  0
   22.7738  -13.8640   26.1578 H   0  0  0  0  0  0  0  0  0  0  0  0
   21.5157  -15.0937   26.4542 H   0  0  0  0  0  0  0  0  0  0  0  0
   22.1203  -11.7458   25.3150 H   0  0  0  0  0  0  0  0  0  0  0  0
   20.3911  -11.4380   25.0025 H   0  0  0  0  0  0  0  0  0  0  0  0
   20.7893  -16.0807   22.5686 H   0  0  0  0  0  0  0  0  0  0  0  0
   17.6617  -18.7785   24.4446 H   0  0  0  0  0  0  0  0  0  0  0  0
   15.2224  -18.9565   24.8905 H   0  0  0  0  0  0  0  0  0  0  0  0
   13.5888  -18.2969   23.1435 H   0  0  0  0  0  0  0  0  0  0  0  0
   13.9318  -16.2914   18.8369 H   0  0  0  0  0  0  0  0  0  0  0  0
   16.3784  -16.3466   18.3223 H   0  0  0  0  0  0  0  0  0  0  0  0
   18.0191  -17.1045   20.0085 H   0  0  0  0  0  0  0  0  0  0  0  0
   11.3328  -18.5501   21.5279 H   0  0  0  0  0  0  0  0  0  0  0  0
   11.0296  -17.5957   20.0365 H   0  0  0  0  0  0  0  0  0  0  0  0
   12.2743  -18.8909   20.0365 H   0  0  0  0  0  0  0  0  0  0  0  0
   11.9529  -15.4189   22.2120 H   0  0  0  0  0  0  0  0  0  0  0  0
   12.7101  -14.9271   20.6590 H   0  0  0  0  0  0  0  0  0  0  0  0
   11.1118  -15.7470   20.6590 H   0  0  0  0  0  0  0  0  0  0  0  0
  1 43  1  6  0  0  0
  2  1  1  0  0  0  0
  3  2  2  0  0  0  0
  4  2  1  0  0  0  0
  5  4  1  0  0  0  0
  5 44  1  1  0  0  0
  6  4  1  0  0  0  0
  6 45  1  0  0  0  0
  6 46  1  0  0  0  0
  7  5  1  0  0  0  0
  7 47  1  0  0  0  0
  7 48  1  0  0  0  0
  8  7  1  0  0  0  0
  8 49  1  0  0  0  0
  8 50  1  0  0  0  0
  9  8  1  0  0  0  0
  9  6  1  0  0  0  0
  9 51  1  0  0  0  0
  9 52  1  0  0  0  0
 10  5  1  0  0  0  0
 10 53  1  0  0  0  0
 10 54  1  0  0  0  0
 11 10  1  0  0  0  0
 11 55  1  0  0  0  0
 11 56  1  0  0  0  0
 12 11  1  0  0  0  0
 13 12  2  0  0  0  0
 14 12  1  0  0  0  0
 15 14  1  0  0  0  0
 16 15  1  0  0  0  0
 16 57  1  0  0  0  0
 17 16  2  0  0  0  0
 17 58  1  0  0  0  0
 18 14  2  0  0  0  0
 18 17  1  0  0  0  0
 19  1  1  0  0  0  0
 19 59  1  0  0  0  0
 19 60  1  0  0  0  0
 20 19  1  0  0  0  0
 20 61  1  0  0  0  0
 20 62  1  0  0  0  0
 21 20  1  0  0  0  0
 21 63  1  0  0  0  0
 21 64  1  0  0  0  0
 22 21  1  0  0  0  0
 22 65  1  0  0  0  0
 23 22  1  0  0  0  0
 24 23  2  0  0  0  0
 24 66  1  0  0  0  0
 24 67  1  0  0  0  0
 25 23  1  0  0  0  0
 25 68  1  0  0  0  0
 25 69  1  0  0  0  0
 26  1  1  0  0  0  0
 26 70  1  0  0  0  0
 27 26  1  0  0  0  0
 28 27  2  0  0  0  0
 29 27  2  0  0  0  0
 30 27  1  0  0  0  0
 31 30  2  0  0  0  0
 31 71  1  0  0  0  0
 32 31  1  0  0  0  0
 32 72  1  0  0  0  0
 33 32  2  0  0  0  0
 33 73  1  0  0  0  0
 34 33  1  0  0  0  0
 35 34  1  0  0  0  0
 36 34  2  0  0  0  0
 36 30  1  0  0  0  0
 37 35  2  0  0  0  0
 37 74  1  0  0  0  0
 38 37  1  0  0  0  0
 38 75  1  0  0  0  0
 39 38  2  0  0  0  0
 39 36  1  0  0  0  0
 39 76  1  0  0  0  0
 40 35  1  0  0  0  0
 41 40  1  0  0  0  0
 41 77  1  0  0  0  0
 41 78  1  0  0  0  0
 41 79  1  0  0  0  0
 42 40  1  0  0  0  0
 42 80  1  0  0  0  0
 42 81  1  0  0  0  0
 42 82  1  0  0  0  0
M  CHG  1  24   1
M  END
$$$$
