SP3
 OpenBabel10252211553D

 47 50  0  0  0  0  0  0  0  0999 V2000
    5.0080   -0.3640   38.7680 N   0  0  0  0  0  0  0  0  0  0  0  0
    5.6210   -1.5190   39.0260 C   0  0  0  0  0  0  0  0  0  0  0  0
    6.0950   -2.3430   38.0910 N   0  0  0  0  0  0  0  0  0  0  0  0
    6.5940   -3.3230   38.6480 N   0  0  0  0  0  0  0  0  0  0  0  0
    6.4670   -3.2040   39.9730 C   0  0  0  0  0  0  0  0  0  0  0  0
    6.9490   -4.1130   40.9140 C   0  0  0  0  0  0  0  0  0  0  0  0
    5.8390   -2.0580   40.2240 C   0  0  0  0  0  0  0  0  0  0  0  0
    7.2280   -3.9610   42.2090 C   0  0  0  0  0  0  0  0  0  0  0  0
    7.4390   -5.7040   40.5330 S   0  0  0  0  0  0  0  0  0  0  0  0
    7.7560   -5.0240   42.8330 C   0  0  0  0  0  0  0  0  0  0  0  0
    7.9710   -6.1120   42.0970 C   0  0  0  0  0  0  0  0  0  0  0  0
    6.0930   -2.1280   36.7740 C   0  0  0  0  0  0  0  0  0  0  0  0
    7.1630   -1.4740   36.1680 C   0  0  0  0  0  0  0  0  0  0  0  0
    7.1650   -1.2320   34.8020 C   0  0  0  0  0  0  0  0  0  0  0  0
    6.0660   -1.6520   34.0600 C   0  0  0  0  0  0  0  0  0  0  0  0
    4.9950   -2.3180   34.6420 C   0  0  0  0  0  0  0  0  0  0  0  0
    6.0190   -1.4300   32.7350 F   0  0  0  0  0  0  0  0  0  0  0  0
    5.0120   -2.5410   36.0100 C   0  0  0  0  0  0  0  0  0  0  0  0
    3.4040   -0.0800   38.6490 S   0  0  0  0  0  0  0  0  0  0  0  0
    2.6560   -1.2320   39.2400 O   0  0  0  0  0  0  0  0  0  0  0  0
    3.1420    1.2110   39.3750 O   0  0  0  0  0  0  0  0  0  0  0  0
    3.0330    0.2130   36.9980 C   0  0  0  0  0  0  0  0  0  0  0  0
    4.0000    0.8940   36.2810 C   0  0  0  0  0  0  0  0  0  0  0  0
    3.7760    1.1380   34.9350 C   0  0  0  0  0  0  0  0  0  0  0  0
    2.6090    0.6940   34.3130 C   0  0  0  0  0  0  0  0  0  0  0  0
    1.6440    0.0010   35.0510 C   0  0  0  0  0  0  0  0  0  0  0  0
    1.8690   -0.2520   36.4020 C   0  0  0  0  0  0  0  0  0  0  0  0
    4.8870    1.8930   34.2230 C   0  0  0  0  0  0  0  0  0  0  0  0
    4.5370    3.1570   34.0640 F   0  0  0  0  0  0  0  0  0  0  0  0
    6.0730    1.7460   34.7880 F   0  0  0  0  0  0  0  0  0  0  0  0
    4.9750    1.3540   33.0320 F   0  0  0  0  0  0  0  0  0  0  0  0
    0.3380   -0.4780   34.3850 C   0  0  0  0  0  0  0  0  0  0  0  0
    0.5790   -1.3050   33.3750 F   0  0  0  0  0  0  0  0  0  0  0  0
   -0.4830   -1.2280   35.1260 F   0  0  0  0  0  0  0  0  0  0  0  0
   -0.3360    0.6170   34.0270 F   0  0  0  0  0  0  0  0  0  0  0  0
    5.6221    0.4507   38.6260 H   0  0  0  0  0  0  0  0  0  0  0  0
    5.5610   -1.6463   41.2055 H   0  0  0  0  0  0  0  0  0  0  0  0
    7.0355   -3.0152   42.7367 H   0  0  0  0  0  0  0  0  0  0  0  0
    8.0005   -4.9980   43.9052 H   0  0  0  0  0  0  0  0  0  0  0  0
    8.4002   -7.0690   42.4285 H   0  0  0  0  0  0  0  0  0  0  0  0
    8.0163   -1.1456   36.7796 H   0  0  0  0  0  0  0  0  0  0  0  0
    8.0119   -0.7223   34.3192 H   0  0  0  0  0  0  0  0  0  0  0  0
    4.1491   -2.6621   34.0287 H   0  0  0  0  0  0  0  0  0  0  0  0
    4.1634   -3.0483   36.4921 H   0  0  0  0  0  0  0  0  0  0  0  0
    4.9258    1.2343   36.7679 H   0  0  0  0  0  0  0  0  0  0  0  0
    2.4478    0.8889   33.2425 H   0  0  0  0  0  0  0  0  0  0  0  0
    1.1307   -0.8154   36.9915 H   0  0  0  0  0  0  0  0  0  0  0  0
  1 36  1  0  0  0  0
  2  1  1  0  0  0  0
  3  2  1  0  0  0  0
  4  3  1  0  0  0  0
  5  4  2  0  0  0  0
  6  5  1  0  0  0  0
  7  5  1  0  0  0  0
  7  2  2  0  0  0  0
  7 37  1  0  0  0  0
  8  6  2  0  0  0  0
  8 38  1  0  0  0  0
  9  6  1  0  0  0  0
 10  8  1  0  0  0  0
 10 39  1  0  0  0  0
 11  9  1  0  0  0  0
 11 10  2  0  0  0  0
 11 40  1  0  0  0  0
 12  3  1  0  0  0  0
 13 12  2  0  0  0  0
 13 41  1  0  0  0  0
 14 13  1  0  0  0  0
 14 42  1  0  0  0  0
 15 14  2  0  0  0  0
 16 15  1  0  0  0  0
 16 43  1  0  0  0  0
 17 15  1  0  0  0  0
 18 16  2  0  0  0  0
 18 12  1  0  0  0  0
 18 44  1  0  0  0  0
 19  1  1  0  0  0  0
 20 19  2  0  0  0  0
 21 19  2  0  0  0  0
 22 19  1  0  0  0  0
 23 22  2  0  0  0  0
 23 45  1  0  0  0  0
 24 23  1  0  0  0  0
 25 24  2  0  0  0  0
 25 46  1  0  0  0  0
 26 25  1  0  0  0  0
 27 26  2  0  0  0  0
 27 22  1  0  0  0  0
 27 47  1  0  0  0  0
 28 24  1  0  0  0  0
 29 28  1  0  0  0  0
 30 28  1  0  0  0  0
 31 28  1  0  0  0  0
 32 26  1  0  0  0  0
 33 32  1  0  0  0  0
 34 32  1  0  0  0  0
 35 32  1  0  0  0  0
M  END
$$$$
