3BP
 OpenBabel05132214513D

 78 80  0  0  0  0  0  0  0  0999 V2000
   35.9740    9.7880    4.4770 O   0  0  0  0  0  0  0  0  0  0  0  0
   36.0650    9.0230    3.5190 C   0  0  0  0  0  0  0  0  0  0  0  0
   35.9700    9.3880    2.2190 N   0  0  0  0  0  0  0  0  0  0  0  0
   36.3200    7.5170    3.7540 C   0  0  1  0  0  0  0  0  0  0  0  0
   35.5670    6.7730    2.6570 C   0  0  0  0  0  0  0  0  0  0  0  0
   34.1220    6.6080    2.9920 C   0  0  0  0  0  0  0  0  0  0  0  0
   33.4510    5.3810    2.8000 C   0  0  0  0  0  0  0  0  0  0  0  0
   32.0930    5.2200    3.1600 C   0  0  0  0  0  0  0  0  0  0  0  0
   31.3380    6.2680    3.7250 C   0  0  0  0  0  0  0  0  0  0  0  0
   32.0010    7.4970    3.8730 C   0  0  0  0  0  0  0  0  0  0  0  0
   33.3580    7.6720    3.5230 C   0  0  0  0  0  0  0  0  0  0  0  0
   29.9310    6.0650    4.1410 C   0  0  0  0  0  0  0  0  0  0  0  0
   29.4170    4.7890    4.4220 C   0  0  0  0  0  0  0  0  0  0  0  0
   28.1160    4.6050    4.9600 C   0  0  0  0  0  0  0  0  0  0  0  0
   27.2700    5.6990    5.2250 C   0  0  0  0  0  0  0  0  0  0  0  0
   27.7510    6.9760    4.8790 C   0  0  0  0  0  0  0  0  0  0  0  0
   29.0540    7.1500    4.3490 C   0  0  0  0  0  0  0  0  0  0  0  0
   37.7540    7.2830    3.7130 N   0  0  0  0  0  0  0  0  0  0  0  0
   38.4910    6.5020    5.0550 S   0  0  0  0  0  0  0  0  0  0  0  0
   38.7000    7.5610    5.9810 O   0  0  0  0  0  0  0  0  0  0  0  0
   37.5980    5.4330    5.3660 O   0  0  0  0  0  0  0  0  0  0  0  0
   40.0310    5.8430    4.5230 C   0  0  0  0  0  0  0  0  0  0  0  0
   40.0670    4.3600    4.9380 C   0  0  0  0  0  0  0  0  0  0  0  0
   35.6860   10.7650    1.8770 C   0  0  1  0  0  0  0  0  0  0  0  0
   36.9330   11.5020    1.4280 C   0  0  0  0  0  0  0  0  0  0  0  0
   37.5790   12.3600    2.5250 C   0  0  0  0  0  0  0  0  0  0  0  0
   39.0700   12.1530    2.3870 C   0  0  0  0  0  0  0  0  0  0  0  0
   39.8250   12.2260    3.3510 O   0  0  0  0  0  0  0  0  0  0  0  0
   39.4400   11.7940    1.1670 N   0  0  0  0  0  0  0  0  0  0  0  0
   34.6280   10.7830    0.7480 C   0  0  0  0  0  0  0  0  0  0  0  0
   34.4780   11.7460   -0.0050 O   0  0  0  0  0  0  0  0  0  0  0  0
   33.9210    9.6470    0.6810 N   0  0  0  0  0  0  0  0  0  0  0  0
   32.8970    9.6010   -0.3270 C   0  0  0  0  0  0  0  0  0  0  0  0
   31.9000    8.5120   -0.0870 C   0  0  0  0  0  0  0  0  0  0  0  0
   32.2010    7.1750   -0.3750 C   0  0  0  0  0  0  0  0  0  0  0  0
   31.2290    6.1810   -0.1490 C   0  0  0  0  0  0  0  0  0  0  0  0
   29.9750    6.5120    0.4230 C   0  0  0  0  0  0  0  0  0  0  0  0
   29.6840    7.8560    0.6790 C   0  0  0  0  0  0  0  0  0  0  0  0
   30.6370    8.8450    0.4320 C   0  0  0  0  0  0  0  0  0  0  0  0
   28.9910    5.4780    0.7510 C   0  0  0  0  0  0  0  0  0  0  0  0
   27.8030    5.7960    1.2460 N   0  0  0  0  0  0  0  0  0  0  0  0
   29.2580    4.1900    0.5910 N   0  0  0  0  0  0  0  0  0  0  0  0
   36.0938    8.7183    1.5080 H   0  0  0  0  0  0  0  0  0  0  0  0
   35.9734    7.1727    4.7060 H   0  0  0  0  0  0  0  0  0  0  0  0
   36.0060    5.8055    2.5303 H   0  0  0  0  0  0  0  0  0  0  0  0
   35.6367    7.3473    1.7569 H   0  0  0  0  0  0  0  0  0  0  0  0
   33.9623    4.5847    2.3882 H   0  0  0  0  0  0  0  0  0  0  0  0
   31.6400    4.3059    3.0041 H   0  0  0  0  0  0  0  0  0  0  0  0
   31.4775    8.3018    4.2514 H   0  0  0  0  0  0  0  0  0  0  0  0
   33.8003    8.5946    3.6576 H   0  0  0  0  0  0  0  0  0  0  0  0
   30.0021    3.9604    4.2319 H   0  0  0  0  0  0  0  0  0  0  0  0
   27.7833    3.6490    5.1611 H   0  0  0  0  0  0  0  0  0  0  0  0
   26.3399    5.5705    5.6533 H   0  0  0  0  0  0  0  0  0  0  0  0
   27.1443    7.7999    5.0136 H   0  0  0  0  0  0  0  0  0  0  0  0
   29.3715    8.1018    4.1074 H   0  0  0  0  0  0  0  0  0  0  0  0
   38.2053    8.1916    3.6072 H   0  0  0  0  0  0  0  0  0  0  0  0
   40.8357    6.3725    4.9889 H   0  0  0  0  0  0  0  0  0  0  0  0
   40.1371    5.9408    3.4628 H   0  0  0  0  0  0  0  0  0  0  0  0
   39.9595    4.2841    5.9999 H   0  0  0  0  0  0  0  0  0  0  0  0
   41.0009    3.9295    4.6423 H   0  0  0  0  0  0  0  0  0  0  0  0
   39.2656    3.8363    4.4601 H   0  0  0  0  0  0  0  0  0  0  0  0
   35.3167   11.2657    2.7475 H   0  0  0  0  0  0  0  0  0  0  0  0
   36.6704   12.1415    0.6113 H   0  0  0  0  0  0  0  0  0  0  0  0
   37.6510   10.7577    1.1534 H   0  0  0  0  0  0  0  0  0  0  0  0
   37.2467   12.0415    3.4909 H   0  0  0  0  0  0  0  0  0  0  0  0
   37.3142   13.3918    2.4244 H   0  0  0  0  0  0  0  0  0  0  0  0
   38.7754   11.7584    0.4415 H   0  0  0  0  0  0  0  0  0  0  0  0
   40.3796   11.5627    0.9856 H   0  0  0  0  0  0  0  0  0  0  0  0
   34.0924    8.8892    1.2857 H   0  0  0  0  0  0  0  0  0  0  0  0
   33.3597    9.4382   -1.2780 H   0  0  0  0  0  0  0  0  0  0  0  0
   32.3717   10.5327   -0.2972 H   0  0  0  0  0  0  0  0  0  0  0  0
   33.1280    6.9199   -0.7500 H   0  0  0  0  0  0  0  0  0  0  0  0
   31.4319    5.2014   -0.4025 H   0  0  0  0  0  0  0  0  0  0  0  0
   28.7585    8.1179    1.0530 H   0  0  0  0  0  0  0  0  0  0  0  0
   30.4119    9.8320    0.6327 H   0  0  0  0  0  0  0  0  0  0  0  0
   27.5631    6.7412    1.3813 H   0  0  0  0  0  0  0  0  0  0  0  0
   30.1284    3.9093    0.2264 H   0  0  0  0  0  0  0  0  0  0  0  0
   28.5860    3.5138    0.8367 H   0  0  0  0  0  0  0  0  0  0  0  0
  2  1  2  0  0  0  0
  3  2  1  0  0  0  0
  3 43  1  0  0  0  0
  4  2  1  0  0  0  0
  4 44  1  1  0  0  0
  5  4  1  0  0  0  0
  5 45  1  0  0  0  0
  5 46  1  0  0  0  0
  6  5  1  0  0  0  0
  7  6  2  0  0  0  0
  7 47  1  0  0  0  0
  8  7  1  0  0  0  0
  8 48  1  0  0  0  0
  9  8  2  0  0  0  0
 10  9  1  0  0  0  0
 10 49  1  0  0  0  0
 11 10  2  0  0  0  0
 11  6  1  0  0  0  0
 11 50  1  0  0  0  0
 12  9  1  0  0  0  0
 13 12  2  0  0  0  0
 13 51  1  0  0  0  0
 14 13  1  0  0  0  0
 14 52  1  0  0  0  0
 15 14  2  0  0  0  0
 15 53  1  0  0  0  0
 16 15  1  0  0  0  0
 16 54  1  0  0  0  0
 17 16  2  0  0  0  0
 17 12  1  0  0  0  0
 17 55  1  0  0  0  0
 18  4  1  0  0  0  0
 18 56  1  0  0  0  0
 19 18  1  0  0  0  0
 20 19  2  0  0  0  0
 21 19  2  0  0  0  0
 22 19  1  0  0  0  0
 22 57  1  0  0  0  0
 22 58  1  0  0  0  0
 23 22  1  0  0  0  0
 23 59  1  0  0  0  0
 23 60  1  0  0  0  0
 23 61  1  0  0  0  0
 24  3  1  0  0  0  0
 24 62  1  1  0  0  0
 25 24  1  0  0  0  0
 25 63  1  0  0  0  0
 25 64  1  0  0  0  0
 26 25  1  0  0  0  0
 26 65  1  0  0  0  0
 26 66  1  0  0  0  0
 27 26  1  0  0  0  0
 28 27  2  0  0  0  0
 29 27  1  0  0  0  0
 29 67  1  0  0  0  0
 29 68  1  0  0  0  0
 30 24  1  0  0  0  0
 31 30  2  0  0  0  0
 32 30  1  0  0  0  0
 32 69  1  0  0  0  0
 33 32  1  0  0  0  0
 33 70  1  0  0  0  0
 33 71  1  0  0  0  0
 34 33  1  0  0  0  0
 35 34  2  0  0  0  0
 35 72  1  0  0  0  0
 36 35  1  0  0  0  0
 36 73  1  0  0  0  0
 37 36  2  0  0  0  0
 38 37  1  0  0  0  0
 38 74  1  0  0  0  0
 39 38  2  0  0  0  0
 39 34  1  0  0  0  0
 39 75  1  0  0  0  0
 40 37  1  0  0  0  0
 41 40  2  0  0  0  0
 41 76  1  0  0  0  0
 42 40  1  0  0  0  0
 42 77  1  0  0  0  0
 42 78  1  0  0  0  0
M  END
$$$$
