T87
 OpenBabel06072214583D

 70 74  0  0  0  0  0  0  0  0999 V2000
    5.7220    7.3130   21.3920 C   0  0  0  0  0  0  0  0  0  0  0  0
    8.0420    7.2970   21.6700 N   0  0  0  0  0  0  0  0  0  0  0  0
    6.9430    6.4950   21.5160 C   0  0  0  0  0  0  0  0  0  0  0  0
    7.4330    8.5590   21.6310 C   0  0  0  0  0  0  0  0  0  0  0  0
    6.0270    8.6790   21.4670 N   0  0  0  0  0  0  0  0  0  0  0  0
    4.4240    6.6560   21.2120 C   0  0  0  0  0  0  0  0  0  0  0  0
    4.3630    5.2360   21.1580 C   0  0  0  0  0  0  0  0  0  0  0  0
    5.5570    4.3740   21.2740 C   0  0  0  0  0  0  0  0  0  0  0  0
    6.8670    5.0340   21.4640 C   0  0  0  0  0  0  0  0  0  0  0  0
    5.1250    9.8850   21.3860 C   0  0  0  0  0  0  0  0  0  0  0  0
    5.4280    2.7860   20.9920 C   0  0  0  0  0  0  0  0  0  0  0  0
    5.1970    1.8020   22.1520 C   0  0  0  0  0  0  0  0  0  0  0  0
    6.5730    1.8980   21.5070 C   0  0  0  0  0  0  0  0  0  0  0  0
    4.3090    2.5420   19.8740 C   0  0  0  0  0  0  0  0  0  0  0  0
    4.5000    2.8780   18.6160 N   0  0  0  0  0  0  0  0  0  0  0  0
    5.7440    3.5320   18.1200 O   0  0  0  0  0  0  0  0  0  0  0  0
    6.0650    3.0420   16.8080 C   0  0  0  0  0  0  0  0  0  0  0  0
    6.5740    1.5850   16.8990 C   0  0  0  0  0  0  0  0  0  0  0  0
    6.2190    0.7750   16.0250 O   0  0  0  0  0  0  0  0  0  0  0  0
    7.4110    1.2270   17.9560 O   0  0  0  0  0  0  0  0  0  0  0  0
    8.8150    1.4600   17.7040 C   0  0  0  0  0  0  0  0  0  0  0  0
    9.6240    0.2110   18.1050 C   0  0  0  0  0  0  0  0  0  0  0  0
    2.9590    1.8100   20.2180 C   0  0  0  0  0  0  0  0  0  0  0  0
    2.7830    0.4350   19.8170 N   0  0  0  0  0  0  0  0  0  0  0  0
    1.5730   -0.3020   20.1140 C   0  0  0  0  0  0  0  0  0  0  0  0
    0.5130    0.3460   20.8280 C   0  0  0  0  0  0  0  0  0  0  0  0
    0.6780    1.7200   21.2380 C   0  0  0  0  0  0  0  0  0  0  0  0
    1.8830    2.4600   20.9440 C   0  0  0  0  0  0  0  0  0  0  0  0
    8.3610    9.7980   21.7540 C   0  0  0  0  0  0  0  0  0  0  0  0
    8.8200   10.1050   23.1530 N   0  0  0  0  0  0  0  0  0  0  0  0
    9.6020    9.2850   24.0800 C   0  0  0  0  0  0  0  0  0  0  0  0
   11.0630    9.2640   24.0630 C   0  0  0  0  0  0  0  0  0  0  0  0
   11.7870    8.4410   24.9810 C   0  0  0  0  0  0  0  0  0  0  0  0
   11.1040    7.5910   25.9670 C   0  0  0  0  0  0  0  0  0  0  0  0
   11.8450    6.7750   26.8520 C   0  0  0  0  0  0  0  0  0  0  0  0
    9.6200    7.6340   25.9650 C   0  0  0  0  0  0  0  0  0  0  0  0
   13.1700    6.7430   26.9060 N   0  0  0  0  0  0  0  0  0  0  0  0
   11.3300    5.8700   27.6680 N   0  0  0  0  0  0  0  0  0  0  0  0
    8.8880    8.4680   25.0360 C   0  0  0  0  0  0  0  0  0  0  0  0
    3.5062    7.2553   21.1196 H   0  0  0  0  0  0  0  0  0  0  0  0
    3.3816    4.7577   21.0237 H   0  0  0  0  0  0  0  0  0  0  0  0
    7.7804    4.4295   21.5658 H   0  0  0  0  0  0  0  0  0  0  0  0
    4.8723   10.2228   22.4019 H   0  0  0  0  0  0  0  0  0  0  0  0
    5.6416   10.6938   20.8485 H   0  0  0  0  0  0  0  0  0  0  0  0
    4.2032    9.6180   20.8485 H   0  0  0  0  0  0  0  0  0  0  0  0
    5.0410    2.1826   23.1722 H   0  0  0  0  0  0  0  0  0  0  0  0
    4.4866    0.9851   22.3468 H   0  0  0  0  0  0  0  0  0  0  0  0
    6.9475    1.0704   20.8867 H   0  0  0  0  0  0  0  0  0  0  0  0
    7.5921    2.0834   21.8773 H   0  0  0  0  0  0  0  0  0  0  0  0
    5.1650    3.0749   16.1763 H   0  0  0  0  0  0  0  0  0  0  0  0
    6.8516    3.6731   16.3688 H   0  0  0  0  0  0  0  0  0  0  0  0
    8.9660    1.6666   16.6342 H   0  0  0  0  0  0  0  0  0  0  0  0
    9.1552    2.3224   18.2960 H   0  0  0  0  0  0  0  0  0  0  0  0
    9.6698    0.1403   19.2018 H   0  0  0  0  0  0  0  0  0  0  0  0
    9.1360   -0.6877   17.6997 H   0  0  0  0  0  0  0  0  0  0  0  0
   10.6436    0.2889   17.6997 H   0  0  0  0  0  0  0  0  0  0  0  0
    1.4683   -1.3494   19.7947 H   0  0  0  0  0  0  0  0  0  0  0  0
   -0.4149   -0.1970   21.0607 H   0  0  0  0  0  0  0  0  0  0  0  0
   -0.1348    2.2163   21.7885 H   0  0  0  0  0  0  0  0  0  0  0  0
    1.9845    3.5065   21.2672 H   0  0  0  0  0  0  0  0  0  0  0  0
    9.2514    9.6219   21.1325 H   0  0  0  0  0  0  0  0  0  0  0  0
    7.7672   10.6638   21.4256 H   0  0  0  0  0  0  0  0  0  0  0  0
    8.5429   11.0297   23.5123 H   0  0  0  0  0  0  0  0  0  0  0  0
   11.6097    9.8858   23.3388 H   0  0  0  0  0  0  0  0  0  0  0  0
   12.8865    8.4439   24.9486 H   0  0  0  0  0  0  0  0  0  0  0  0
    9.0638    7.0175   26.6865 H   0  0  0  0  0  0  0  0  0  0  0  0
   13.6432    6.1222   27.5780 H   0  0  0  0  0  0  0  0  0  0  0  0
   11.9474    5.3183   28.2807 H   0  0  0  0  0  0  0  0  0  0  0  0
   10.3117    5.7170   27.6906 H   0  0  0  0  0  0  0  0  0  0  0  0
    7.7883    8.4804   25.0571 H   0  0  0  0  0  0  0  0  0  0  0  0
  3  2  1  0  0  0  0
  3  1  2  0  0  0  0
  4  2  2  0  0  0  0
  5  4  1  0  0  0  0
  5  1  1  0  0  0  0
  6  1  1  0  0  0  0
  6 40  1  0  0  0  0
  7  6  2  0  0  0  0
  7 41  1  0  0  0  0
  8  7  1  0  0  0  0
  9  8  2  0  0  0  0
  9  3  1  0  0  0  0
  9 42  1  0  0  0  0
 10  5  1  0  0  0  0
 10 43  1  0  0  0  0
 10 44  1  0  0  0  0
 10 45  1  0  0  0  0
 11  8  1  0  0  0  0
 12 11  1  0  0  0  0
 12 46  1  0  0  0  0
 12 47  1  0  0  0  0
 13 11  1  0  0  0  0
 13 12  1  0  0  0  0
 13 48  1  0  0  0  0
 13 49  1  0  0  0  0
 14 11  1  0  0  0  0
 15 14  2  3  0  0  0
 16 15  1  0  0  0  0
 17 16  1  0  0  0  0
 17 50  1  0  0  0  0
 17 51  1  0  0  0  0
 18 17  1  0  0  0  0
 19 18  2  0  0  0  0
 20 18  1  0  0  0  0
 21 20  1  0  0  0  0
 21 52  1  0  0  0  0
 21 53  1  0  0  0  0
 22 21  1  0  0  0  0
 22 54  1  0  0  0  0
 22 55  1  0  0  0  0
 22 56  1  0  0  0  0
 23 14  1  0  0  0  0
 24 23  2  0  0  0  0
 25 24  1  0  0  0  0
 25 57  1  0  0  0  0
 26 25  2  0  0  0  0
 26 58  1  0  0  0  0
 27 26  1  0  0  0  0
 27 59  1  0  0  0  0
 28 27  2  0  0  0  0
 28 23  1  0  0  0  0
 28 60  1  0  0  0  0
 29  4  1  0  0  0  0
 29 61  1  0  0  0  0
 29 62  1  0  0  0  0
 30 29  1  0  0  0  0
 30 63  1  0  0  0  0
 31 30  1  0  0  0  0
 32 31  2  0  0  0  0
 32 64  1  0  0  0  0
 33 32  1  0  0  0  0
 33 65  1  0  0  0  0
 34 33  2  0  0  0  0
 35 34  1  0  0  0  0
 36 34  1  0  0  0  0
 36 66  1  0  0  0  0
 37 35  2  0  0  0  0
 37 67  1  0  0  0  0
 38 35  1  0  0  0  0
 38 68  1  0  0  0  0
 38 69  1  0  0  0  0
 39 36  2  0  0  0  0
 39 31  1  0  0  0  0
 39 70  1  0  0  0  0
M  END
$$$$
