7Z5
 OpenBabel11212214263D

 42 43  0  0  0  0  0  0  0  0999 V2000
    0.8750   44.3490    6.2830 C   0  0  0  0  0  0  0  0  0  0  0  0
    0.2460   44.4070    7.5240 C   0  0  0  0  0  0  0  0  0  0  0  0
    2.1510   43.8040    6.1740 C   0  0  0  0  0  0  0  0  0  0  0  0
    0.9070   43.9100    8.6460 C   0  0  0  0  0  0  0  0  0  0  0  0
    2.8130   43.3060    7.2920 C   0  0  0  0  0  0  0  0  0  0  0  0
    2.1820   43.3630    8.5320 C   0  0  0  0  0  0  0  0  0  0  0  0
    4.0190   42.7520    7.1650 N   0  0  0  0  0  0  0  0  0  0  0  0
    5.0270   43.4630    6.3620 C   0  0  0  0  0  0  0  0  0  0  0  0
    4.2910   41.4660    7.8270 C   0  0  0  0  0  0  0  0  0  0  0  0
    4.7660   40.4310    6.8040 C   0  0  0  0  0  0  0  0  0  0  0  0
    5.7200   39.4810    7.1530 C   0  0  0  0  0  0  0  0  0  0  0  0
    6.1500   38.5660    6.1960 C   0  0  0  0  0  0  0  0  0  0  0  0
    5.6050   38.6330    4.9180 C   0  0  0  0  0  0  0  0  0  0  0  0
    4.6970   39.5490    4.6240 N   0  0  0  0  0  0  0  0  0  0  0  0
    4.2660   40.4350    5.5060 C   0  0  0  0  0  0  0  0  0  0  0  0
    0.1650   44.8600    5.0260 C   0  0  0  0  0  0  0  0  0  0  0  0
    0.5540   45.9420    4.5330 O   0  0  0  0  0  0  0  0  0  0  0  0
   -0.7630   44.1720    4.5500 O   0  0  0  0  0  0  0  0  0  0  0  0
   -0.9710   44.9450    7.6040 N   0  0  0  0  0  0  0  0  0  0  0  0
   -1.2210   46.2460    7.7450 C   0  0  0  0  0  0  0  0  0  0  0  0
   -0.3610   47.1220    7.8140 O   0  0  0  0  0  0  0  0  0  0  0  0
   -2.7070   46.6050    7.8150 C   0  0  0  0  0  0  0  0  0  0  0  0
   -3.5830   45.4100    7.4350 C   0  0  0  0  0  0  0  0  0  0  0  0
    2.6428   43.7664    5.1908 H   0  0  0  0  0  0  0  0  0  0  0  0
    0.4169   43.9504    9.6300 H   0  0  0  0  0  0  0  0  0  0  0  0
    2.6931   42.9742    9.4251 H   0  0  0  0  0  0  0  0  0  0  0  0
    5.7405   43.9662    7.0311 H   0  0  0  0  0  0  0  0  0  0  0  0
    5.5646   42.7431    5.7274 H   0  0  0  0  0  0  0  0  0  0  0  0
    4.5292   44.2110    5.7274 H   0  0  0  0  0  0  0  0  0  0  0  0
    5.0719   41.6081    8.5886 H   0  0  0  0  0  0  0  0  0  0  0  0
    3.3655   41.1039    8.2986 H   0  0  0  0  0  0  0  0  0  0  0  0
    6.1300   39.4530    8.1734 H   0  0  0  0  0  0  0  0  0  0  0  0
    6.9050   37.8059    6.4453 H   0  0  0  0  0  0  0  0  0  0  0  0
    5.9312   37.9197    4.1468 H   0  0  0  0  0  0  0  0  0  0  0  0
    3.5096   41.1776    5.2122 H   0  0  0  0  0  0  0  0  0  0  0  0
   -1.2397   44.4779    3.7380 H   0  0  0  0  0  0  0  0  0  0  0  0
   -1.7783   44.3073    7.5530 H   0  0  0  0  0  0  0  0  0  0  0  0
   -2.9526   46.9183    8.8405 H   0  0  0  0  0  0  0  0  0  0  0  0
   -2.9023   47.4206    7.1032 H   0  0  0  0  0  0  0  0  0  0  0  0
   -3.9453   44.9158    8.3485 H   0  0  0  0  0  0  0  0  0  0  0  0
   -4.4412   45.7584    6.8416 H   0  0  0  0  0  0  0  0  0  0  0  0
   -2.9925   44.6964    6.8416 H   0  0  0  0  0  0  0  0  0  0  0  0
  2  1  2  0  0  0  0
  3  1  1  0  0  0  0
  3 24  1  0  0  0  0
  4  2  1  0  0  0  0
  4 25  1  0  0  0  0
  5  3  2  0  0  0  0
  6  5  1  0  0  0  0
  6  4  2  0  0  0  0
  6 26  1  0  0  0  0
  7  5  1  0  0  0  0
  8  7  1  0  0  0  0
  8 27  1  0  0  0  0
  8 28  1  0  0  0  0
  8 29  1  0  0  0  0
  9  7  1  0  0  0  0
  9 30  1  0  0  0  0
  9 31  1  0  0  0  0
 10  9  1  0  0  0  0
 11 10  2  0  0  0  0
 11 32  1  0  0  0  0
 12 11  1  0  0  0  0
 12 33  1  0  0  0  0
 13 12  2  0  0  0  0
 13 34  1  0  0  0  0
 14 13  1  0  0  0  0
 15 14  2  0  0  0  0
 15 10  1  0  0  0  0
 15 35  1  0  0  0  0
 16  1  1  0  0  0  0
 17 16  2  0  0  0  0
 18 16  1  0  0  0  0
 18 36  1  0  0  0  0
 19  2  1  0  0  0  0
 19 37  1  0  0  0  0
 20 19  1  0  0  0  0
 21 20  2  0  0  0  0
 22 20  1  0  0  0  0
 22 38  1  0  0  0  0
 22 39  1  0  0  0  0
 23 22  1  0  0  0  0
 23 40  1  0  0  0  0
 23 41  1  0  0  0  0
 23 42  1  0  0  0  0
M  END
$$$$
