170
 OpenBabel11082215073D

 54 57  0  0  0  0  0  0  0  0999 V2000
   18.9200  -18.8250   18.8870 Cl  0  0  0  0  0  0  0  0  0  0  0  0
   20.8970  -17.5700   22.1590 N   0  0  0  0  0  0  0  0  0  0  0  0
   20.2840  -18.2180   23.2720 C   0  0  0  0  0  0  0  0  0  0  0  0
   19.1590  -19.1040   22.9210 C   0  0  0  0  0  0  0  0  0  0  0  0
   18.8150  -19.2740   21.6010 N   0  0  0  0  0  0  0  0  0  0  0  0
   19.4330  -18.5970   20.4830 C   0  0  0  0  0  0  0  0  0  0  0  0
   20.4700  -17.7120   20.8430 C   0  0  0  0  0  0  0  0  0  0  0  0
   18.5380  -19.6880   23.8040 O   0  0  0  0  0  0  0  0  0  0  0  0
   17.6870  -20.1640   21.2630 C   0  0  0  0  0  0  0  0  0  0  0  0
   16.3530  -19.5140   21.5960 C   0  0  0  0  0  0  0  0  0  0  0  0
   15.5070  -20.2810   22.2960 N   0  0  0  0  0  0  0  0  0  0  0  0
   16.1200  -18.3570   21.2610 O   0  0  0  0  0  0  0  0  0  0  0  0
   14.1960  -19.7320   22.6720 C   0  0  0  0  0  0  0  0  0  0  0  0
   13.6100  -20.4290   23.8930 C   0  0  0  0  0  0  0  0  0  0  0  0
   14.4090  -20.4590   25.0900 C   0  0  0  0  0  0  0  0  0  0  0  0
   13.8340  -21.1300   26.2240 C   0  0  0  0  0  0  0  0  0  0  0  0
   14.7700  -21.1720   27.6980 Cl  0  0  0  0  0  0  0  0  0  0  0  0
   12.5340  -21.7510   26.2130 C   0  0  0  0  0  0  0  0  0  0  0  0
   11.7390  -21.7160   25.0240 C   0  0  0  0  0  0  0  0  0  0  0  0
   12.3170  -21.0450   23.8710 C   0  0  0  0  0  0  0  0  0  0  0  0
   11.6420  -21.1420   22.6900 N   0  0  0  0  0  0  0  0  0  0  0  0
   11.5850  -22.0040   21.8350 N   0  0  0  0  0  0  0  0  0  0  0  0
   10.7900  -21.7870   20.8710 N   0  0  0  0  0  0  0  0  0  0  0  0
   10.2210  -20.7090   20.9690 N   0  0  0  0  0  0  0  0  0  0  0  0
   10.7630  -20.1520   22.1710 C   0  0  0  0  0  0  0  0  0  0  0  0
   20.6630  -17.9990   24.6240 N   0  0  0  0  0  0  0  0  0  0  0  0
   19.9590  -16.9400   25.3690 C   0  0  0  0  0  0  0  0  0  0  0  0
   20.8780  -15.7930   25.7440 C   0  0  0  0  0  0  0  0  0  0  0  0
   21.0310  -15.1110   24.5970 F   0  0  0  0  0  0  0  0  0  0  0  0
   22.0780  -16.2800   26.1010 F   0  0  0  0  0  0  0  0  0  0  0  0
   20.2650  -14.8980   26.8220 C   0  0  0  0  0  0  0  0  0  0  0  0
   21.0630  -13.8760   27.3500 N   0  3  0  0  0  0  0  0  0  0  0  0
   22.3480  -13.7990   26.9440 O   0  5  0  0  0  0  0  0  0  0  0  0
   20.6360  -12.9170   28.2550 C   0  0  0  0  0  0  0  0  0  0  0  0
   19.2690  -12.9920   28.6840 C   0  0  0  0  0  0  0  0  0  0  0  0
   18.4150  -14.0460   28.1720 C   0  0  0  0  0  0  0  0  0  0  0  0
   18.8770  -15.0190   27.2280 C   0  0  0  0  0  0  0  0  0  0  0  0
   20.9568  -17.1148   20.0579 H   0  0  0  0  0  0  0  0  0  0  0  0
   17.7176  -20.3887   20.1866 H   0  0  0  0  0  0  0  0  0  0  0  0
   17.7820  -21.0861   21.8552 H   0  0  0  0  0  0  0  0  0  0  0  0
   15.7705  -21.2393   22.5663 H   0  0  0  0  0  0  0  0  0  0  0  0
   14.3113  -18.6613   22.8964 H   0  0  0  0  0  0  0  0  0  0  0  0
   13.5080  -19.8920   21.8287 H   0  0  0  0  0  0  0  0  0  0  0  0
   15.4049  -19.9940   25.1346 H   0  0  0  0  0  0  0  0  0  0  0  0
   12.1538  -22.2506   27.1162 H   0  0  0  0  0  0  0  0  0  0  0  0
   10.7398  -22.1742   24.9842 H   0  0  0  0  0  0  0  0  0  0  0  0
   10.5450  -19.1642   22.6031 H   0  0  0  0  0  0  0  0  0  0  0  0
   21.4037  -18.5606   25.0677 H   0  0  0  0  0  0  0  0  0  0  0  0
   19.1430  -16.5496   24.7431 H   0  0  0  0  0  0  0  0  0  0  0  0
   19.5744  -17.3818   26.3001 H   0  0  0  0  0  0  0  0  0  0  0  0
   21.3138  -12.1346   28.6271 H   0  0  0  0  0  0  0  0  0  0  0  0
   18.8713  -12.2546   29.3968 H   0  0  0  0  0  0  0  0  0  0  0  0
   17.3735  -14.1003   28.5216 H   0  0  0  0  0  0  0  0  0  0  0  0
   18.2203  -15.8092   26.8350 H   0  0  0  0  0  0  0  0  0  0  0  0
  3  2  2  0  0  0  0
  4  3  1  0  0  0  0
  5  4  1  0  0  0  0
  6  5  1  0  0  0  0
  6  1  1  0  0  0  0
  7  6  2  0  0  0  0
  7  2  1  0  0  0  0
  7 38  1  0  0  0  0
  8  4  2  0  0  0  0
  9  5  1  0  0  0  0
  9 39  1  0  0  0  0
  9 40  1  0  0  0  0
 10  9  1  0  0  0  0
 11 10  1  0  0  0  0
 11 41  1  0  0  0  0
 12 10  2  0  0  0  0
 13 11  1  0  0  0  0
 13 42  1  0  0  0  0
 13 43  1  0  0  0  0
 14 13  1  0  0  0  0
 15 14  2  0  0  0  0
 15 44  1  0  0  0  0
 16 15  1  0  0  0  0
 17 16  1  0  0  0  0
 18 16  2  0  0  0  0
 18 45  1  0  0  0  0
 19 18  1  0  0  0  0
 19 46  1  0  0  0  0
 20 19  2  0  0  0  0
 20 14  1  0  0  0  0
 21 20  1  0  0  0  0
 22 21  1  0  0  0  0
 23 22  2  0  0  0  0
 24 23  1  0  0  0  0
 25 24  2  0  0  0  0
 25 21  1  0  0  0  0
 25 47  1  0  0  0  0
 26  3  1  0  0  0  0
 26 48  1  0  0  0  0
 27 26  1  0  0  0  0
 27 49  1  0  0  0  0
 27 50  1  0  0  0  0
 28 27  1  0  0  0  0
 29 28  1  0  0  0  0
 30 28  1  0  0  0  0
 31 28  1  0  0  0  0
 32 31  2  0  0  0  0
 33 32  1  0  0  0  0
 34 32  1  0  0  0  0
 34 51  1  0  0  0  0
 35 34  2  0  0  0  0
 35 52  1  0  0  0  0
 36 35  1  0  0  0  0
 36 53  1  0  0  0  0
 37 31  1  0  0  0  0
 37 36  2  0  0  0  0
 37 54  1  0  0  0  0
M  CHG  2  32   1  33  -1
M  END
$$$$
