132
 OpenBabel11072215033D

 43 46  0  0  0  0  0  0  0  0999 V2000
   12.2370  -10.0630   21.1900 Cl  0  0  0  0  0  0  0  0  0  0  0  0
   13.2320  -12.2500   22.6940 C   0  0  0  0  0  0  0  0  0  0  0  0
   13.3390  -11.4340   21.5350 C   0  0  0  0  0  0  0  0  0  0  0  0
   14.4180  -11.6580   20.6510 C   0  0  0  0  0  0  0  0  0  0  0  0
   16.3760  -13.1190   20.2550 N   0  0  0  0  0  0  0  0  0  0  0  0
   15.3160  -12.6890   20.9110 C   0  0  0  0  0  0  0  0  0  0  0  0
   15.1710  -13.4660   22.0100 C   0  0  0  0  0  0  0  0  0  0  0  0
   14.1460  -13.3000   22.8950 C   0  0  0  0  0  0  0  0  0  0  0  0
   16.9360  -14.1150   20.8890 C   0  0  0  0  0  0  0  0  0  0  0  0
   16.1670  -14.3860   22.0170 C   0  0  0  0  0  0  0  0  0  0  0  0
   18.1070  -14.7760   20.4870 C   0  0  0  0  0  0  0  0  0  0  0  0
   18.6220  -14.6830   19.1670 C   0  0  0  0  0  0  0  0  0  0  0  0
   17.9330  -13.9420   18.2040 O   0  0  0  0  0  0  0  0  0  0  0  0
   19.8580  -15.3560   18.8770 C   0  0  0  0  0  0  0  0  0  0  0  0
   20.5190  -16.0780   19.8650 C   0  0  0  0  0  0  0  0  0  0  0  0
   20.0140  -16.1560   21.1350 C   0  0  0  0  0  0  0  0  0  0  0  0
   18.8180  -15.5190   21.4420 C   0  0  0  0  0  0  0  0  0  0  0  0
   20.4650  -15.3000   17.6300 C   0  0  0  0  0  0  0  0  0  0  0  0
   20.6890  -16.4630   16.9080 C   0  0  0  0  0  0  0  0  0  0  0  0
   21.2660  -16.4250   15.6750 C   0  0  0  0  0  0  0  0  0  0  0  0
   21.5760  -15.2890   15.1710 C   0  0  0  0  0  0  0  0  0  0  0  0
   21.4520  -14.0240   15.8660 C   0  0  0  0  0  0  0  0  0  0  0  0
   20.8850  -14.0640   17.1010 C   0  0  0  0  0  0  0  0  0  0  0  0
   12.2050  -12.0990   23.6240 C   0  0  0  0  0  0  0  0  0  0  0  0
   11.5130  -13.1290   24.0460 N   0  3  0  0  0  0  0  0  0  0  0  0
   11.9000  -10.9030   24.0610 N   0  0  0  0  0  0  0  0  0  0  0  0
   14.5475  -11.0217   19.7631 H   0  0  0  0  0  0  0  0  0  0  0  0
   16.7155  -12.7245   19.3662 H   0  0  0  0  0  0  0  0  0  0  0  0
   14.0359  -13.9781   23.7541 H   0  0  0  0  0  0  0  0  0  0  0  0
   16.3327  -15.1807   22.7593 H   0  0  0  0  0  0  0  0  0  0  0  0
   18.2892  -13.8750   17.2827 H   0  0  0  0  0  0  0  0  0  0  0  0
   21.4602  -16.5933   19.6227 H   0  0  0  0  0  0  0  0  0  0  0  0
   20.5532  -16.7210   21.9097 H   0  0  0  0  0  0  0  0  0  0  0  0
   18.4168  -15.5994   22.4631 H   0  0  0  0  0  0  0  0  0  0  0  0
   20.3958  -17.4319   17.3384 H   0  0  0  0  0  0  0  0  0  0  0  0
   21.4626  -17.3547   15.1210 H   0  0  0  0  0  0  0  0  0  0  0  0
   21.9624  -15.2729   14.1412 H   0  0  0  0  0  0  0  0  0  0  0  0
   21.7983  -13.0809   15.4181 H   0  0  0  0  0  0  0  0  0  0  0  0
   20.7554  -13.1391   17.6821 H   0  0  0  0  0  0  0  0  0  0  0  0
   10.7580  -12.9953   24.7338 H   0  0  0  0  0  0  0  0  0  0  0  0
   11.7242  -14.0721   23.6899 H   0  0  0  0  0  0  0  0  0  0  0  0
   11.1422  -10.7836   24.7483 H   0  0  0  0  0  0  0  0  0  0  0  0
   12.4178  -10.0816   23.7174 H   0  0  0  0  0  0  0  0  0  0  0  0
  3  2  2  0  0  0  0
  3  1  1  0  0  0  0
  4  3  1  0  0  0  0
  4 27  1  0  0  0  0
  5 28  1  0  0  0  0
  6  4  2  0  0  0  0
  6  5  1  0  0  0  0
  7  6  1  0  0  0  0
  8  7  2  0  0  0  0
  8  2  1  0  0  0  0
  8 29  1  0  0  0  0
  9  5  1  0  0  0  0
 10  7  1  0  0  0  0
 10  9  2  0  0  0  0
 10 30  1  0  0  0  0
 11  9  1  0  0  0  0
 12 11  2  0  0  0  0
 13 12  1  0  0  0  0
 13 31  1  0  0  0  0
 14 12  1  0  0  0  0
 15 14  2  0  0  0  0
 15 32  1  0  0  0  0
 16 15  1  0  0  0  0
 16 33  1  0  0  0  0
 17 16  2  0  0  0  0
 17 11  1  0  0  0  0
 17 34  1  0  0  0  0
 18 14  1  0  0  0  0
 19 18  2  0  0  0  0
 19 35  1  0  0  0  0
 20 19  1  0  0  0  0
 20 36  1  0  0  0  0
 21 20  2  0  0  0  0
 21 37  1  0  0  0  0
 22 21  1  0  0  0  0
 22 38  1  0  0  0  0
 23 22  2  0  0  0  0
 23 18  1  0  0  0  0
 23 39  1  0  0  0  0
 24  2  1  0  0  0  0
 25 24  2  0  0  0  0
 25 40  1  0  0  0  0
 25 41  1  0  0  0  0
 26 24  1  0  0  0  0
 26 42  1  0  0  0  0
 26 43  1  0  0  0  0
M  CHG  1  25   1
M  END
$$$$
