BM5
 OpenBabel06142215303D

 38 41  0  0  0  0  0  0  0  0999 V2000
    6.8460  -39.9580   15.0890 O   0  0  0  0  0  0  0  0  0  0  0  0
    7.8730  -39.4690   19.1700 S   0  0  0  0  0  0  0  0  0  0  0  0
    8.9470  -40.1070   17.9270 C   0  0  0  0  0  0  0  0  0  0  0  0
    9.1350  -39.0470   17.0590 C   0  0  2  0  0  0  0  0  0  0  0  0
    7.7180  -38.5960   16.7570 N   0  0  0  0  0  0  0  0  0  0  0  0
    7.2260  -38.1180   18.0590 C   0  0  1  0  0  0  0  0  0  0  0  0
    6.6940  -39.2050   16.0210 C   0  0  0  0  0  0  0  0  0  0  0  0
    5.4460  -38.7570   16.6270 C   0  0  0  0  0  0  0  0  0  0  0  0
    4.1160  -38.8630   16.1690 C   0  0  0  0  0  0  0  0  0  0  0  0
    3.0570  -38.3820   16.9660 C   0  0  0  0  0  0  0  0  0  0  0  0
    3.3340  -37.7970   18.2200 C   0  0  0  0  0  0  0  0  0  0  0  0
    4.6690  -37.6890   18.6730 C   0  0  0  0  0  0  0  0  0  0  0  0
    5.7260  -38.1700   17.8660 C   0  0  0  0  0  0  0  0  0  0  0  0
    7.7120  -36.6660   18.4310 C   0  0  0  0  0  0  0  0  0  0  0  0
    8.2460  -36.4070   19.7230 C   0  0  0  0  0  0  0  0  0  0  0  0
    8.6750  -35.1310   20.1230 C   0  0  0  0  0  0  0  0  0  0  0  0
    8.5700  -34.0780   19.1970 C   0  0  0  0  0  0  0  0  0  0  0  0
    8.0480  -34.3040   17.9070 C   0  0  0  0  0  0  0  0  0  0  0  0
    7.6210  -35.5910   17.5260 C   0  0  0  0  0  0  0  0  0  0  0  0
   10.1760  -38.8990   15.9400 C   0  0  0  0  0  0  0  0  0  0  0  0
   10.7000  -39.8200   15.3580 O   0  0  0  0  0  0  0  0  0  0  0  0
   10.4420  -37.6080   15.6830 O   0  0  0  0  0  0  0  0  0  0  0  0
   11.0480  -36.9660   16.8050 C   0  0  0  0  0  0  0  0  0  0  0  0
    9.9042  -40.4257   18.3655 H   0  0  0  0  0  0  0  0  0  0  0  0
    8.5287  -40.9917   17.4246 H   0  0  0  0  0  0  0  0  0  0  0  0
    9.8318  -38.3839   17.5927 H   0  0  0  0  0  0  0  0  0  0  0  0
    3.9053  -39.3204   15.1911 H   0  0  0  0  0  0  0  0  0  0  0  0
    2.0188  -38.4624   16.6116 H   0  0  0  0  0  0  0  0  0  0  0  0
    2.5099  -37.4244   18.8461 H   0  0  0  0  0  0  0  0  0  0  0  0
    4.8848  -37.2322   19.6501 H   0  0  0  0  0  0  0  0  0  0  0  0
    8.3263  -37.2393   20.4378 H   0  0  0  0  0  0  0  0  0  0  0  0
    9.0812  -34.9603   21.1309 H   0  0  0  0  0  0  0  0  0  0  0  0
    8.8985  -33.0676   19.4820 H   0  0  0  0  0  0  0  0  0  0  0  0
    7.9737  -33.4700   17.1936 H   0  0  0  0  0  0  0  0  0  0  0  0
    7.2148  -35.7571   16.5173 H   0  0  0  0  0  0  0  0  0  0  0  0
   10.6442  -37.3938   17.7345 H   0  0  0  0  0  0  0  0  0  0  0  0
   12.1365  -37.1213   16.7725 H   0  0  0  0  0  0  0  0  0  0  0  0
   10.8302  -35.8883   16.7725 H   0  0  0  0  0  0  0  0  0  0  0  0
  3  2  1  0  0  0  0
  3 24  1  0  0  0  0
  3 25  1  0  0  0  0
  4  3  1  0  0  0  0
  4 26  1  1  0  0  0
  5  4  1  0  0  0  0
  6  5  1  0  0  0  0
  6  2  1  0  0  0  0
  6 14  1  1  0  0  0
  7  1  2  0  0  0  0
  7  5  1  0  0  0  0
  8  7  1  0  0  0  0
  9  8  1  0  0  0  0
  9 27  1  0  0  0  0
 10  9  2  0  0  0  0
 10 28  1  0  0  0  0
 11 10  1  0  0  0  0
 11 29  1  0  0  0  0
 12 11  2  0  0  0  0
 12 30  1  0  0  0  0
 13  8  2  0  0  0  0
 13 12  1  0  0  0  0
 13  6  1  0  0  0  0
 15 14  2  0  0  0  0
 15 31  1  0  0  0  0
 16 15  1  0  0  0  0
 16 32  1  0  0  0  0
 17 16  2  0  0  0  0
 17 33  1  0  0  0  0
 18 17  1  0  0  0  0
 18 34  1  0  0  0  0
 19 18  2  0  0  0  0
 19 14  1  0  0  0  0
 19 35  1  0  0  0  0
 20  4  1  0  0  0  0
 21 20  2  0  0  0  0
 22 20  1  0  0  0  0
 23 22  1  0  0  0  0
 23 36  1  0  0  0  0
 23 37  1  0  0  0  0
 23 38  1  0  0  0  0
M  END
$$$$
