LX9
 OpenBabel09282215133D

 53 58  0  0  0  0  0  0  0  0999 V2000
   85.6780  259.0030  113.5800 N   0  0  0  0  0  0  0  0  0  0  0  0
   84.3460  258.8060  113.5980 N   0  0  0  0  0  0  0  0  0  0  0  0
   83.7610  259.4590  112.6700 C   0  0  0  0  0  0  0  0  0  0  0  0
   84.8450  260.1460  111.9520 C   0  0  0  0  0  0  0  0  0  0  0  0
   85.9660  259.8300  112.6110 C   0  0  0  0  0  0  0  0  0  0  0  0
   82.4750  259.4680  112.4430 N   0  0  0  0  0  0  0  0  0  0  0  0
   86.5820  258.5000  114.4320 C   0  0  0  0  0  0  0  0  0  0  0  0
   87.8410  259.1070  114.4710 C   0  0  0  0  0  0  0  0  0  0  0  0
   88.8430  258.6090  115.3100 C   0  0  0  0  0  0  0  0  0  0  0  0
   88.5810  257.4810  116.0910 C   0  0  0  0  0  0  0  0  0  0  0  0
   87.3230  256.8700  116.0530 C   0  0  0  0  0  0  0  0  0  0  0  0
   86.3260  257.3680  115.2150 C   0  0  0  0  0  0  0  0  0  0  0  0
   90.1900  259.2470  115.3420 C   0  0  0  0  0  0  0  0  0  0  0  0
   90.2800  260.6460  115.4130 C   0  0  0  0  0  0  0  0  0  0  0  0
   91.5570  261.2040  115.4150 C   0  0  0  0  0  0  0  0  0  0  0  0
   91.9080  262.5030  115.4940 N   0  0  0  0  0  0  0  0  0  0  0  0
   92.7060  260.4180  115.3480 C   0  0  0  0  0  0  0  0  0  0  0  0
   93.2100  262.6380  115.4800 C   0  0  0  0  0  0  0  0  0  0  0  0
   93.8190  261.4340  115.3890 C   0  0  0  0  0  0  0  0  0  0  0  0
   92.6500  259.0250  115.2660 C   0  0  0  0  0  0  0  0  0  0  0  0
   91.3630  258.4600  115.2540 C   0  0  0  0  0  0  0  0  0  0  0  0
   84.8050  261.1200  110.7930 C   0  0  0  0  0  0  0  0  0  0  0  0
   83.6590  261.8320  110.4790 C   0  0  0  0  0  0  0  0  0  0  0  0
   83.6420  262.6780  109.3790 C   0  0  0  0  0  0  0  0  0  0  0  0
   84.7820  262.8110  108.5680 C   0  0  0  0  0  0  0  0  0  0  0  0
   82.3670  263.4770  109.0660 C   0  0  0  0  0  0  0  0  0  0  0  0
   85.9260  262.0830  108.8660 C   0  0  0  0  0  0  0  0  0  0  0  0
   84.7430  263.7150  107.3500 C   0  0  0  0  0  0  0  0  0  0  0  0
   85.9290  261.2380  109.9730 C   0  0  0  0  0  0  0  0  0  0  0  0
   83.5330  264.1520  106.9200 N   0  0  0  0  0  0  0  0  0  0  0  0
   85.7760  263.9750  106.7310 O   0  0  0  0  0  0  0  0  0  0  0  0
   82.2610  263.8320  107.5660 C   0  0  0  0  0  0  0  0  0  0  0  0
   86.9717  260.2074  112.3739 H   0  0  0  0  0  0  0  0  0  0  0  0
   82.0928  260.0278  111.6675 H   0  0  0  0  0  0  0  0  0  0  0  0
   81.8429  258.9153  113.0395 H   0  0  0  0  0  0  0  0  0  0  0  0
   88.0448  259.9826  113.8372 H   0  0  0  0  0  0  0  0  0  0  0  0
   89.3686  257.0705  116.7399 H   0  0  0  0  0  0  0  0  0  0  0  0
   87.1198  255.9939  116.6863 H   0  0  0  0  0  0  0  0  0  0  0  0
   85.3441  256.8743  115.1694 H   0  0  0  0  0  0  0  0  0  0  0  0
   89.3797  261.2759  115.4649 H   0  0  0  0  0  0  0  0  0  0  0  0
   91.2407  263.2851  115.5570 H   0  0  0  0  0  0  0  0  0  0  0  0
   93.7379  263.6015  115.5349 H   0  0  0  0  0  0  0  0  0  0  0  0
   94.9006  261.2371  115.3525 H   0  0  0  0  0  0  0  0  0  0  0  0
   93.5585  258.4070  115.2139 H   0  0  0  0  0  0  0  0  0  0  0  0
   91.2640  257.3674  115.1734 H   0  0  0  0  0  0  0  0  0  0  0  0
   82.7596  261.7265  111.1035 H   0  0  0  0  0  0  0  0  0  0  0  0
   81.4916  262.8752  109.3514 H   0  0  0  0  0  0  0  0  0  0  0  0
   82.4061  264.4170  109.6360 H   0  0  0  0  0  0  0  0  0  0  0  0
   86.8216  262.1728  108.2337 H   0  0  0  0  0  0  0  0  0  0  0  0
   86.8317  260.6539  110.2052 H   0  0  0  0  0  0  0  0  0  0  0  0
   83.5086  264.7498  106.0816 H   0  0  0  0  0  0  0  0  0  0  0  0
   81.5980  264.7041  107.4668 H   0  0  0  0  0  0  0  0  0  0  0  0
   81.8752  262.9337  107.0618 H   0  0  0  0  0  0  0  0  0  0  0  0
  2  1  1  0  0  0  0
  3  2  2  0  0  0  0
  4  3  1  0  0  0  0
  5  4  2  0  0  0  0
  5  1  1  0  0  0  0
  5 33  1  0  0  0  0
  6  3  1  0  0  0  0
  6 34  1  0  0  0  0
  6 35  1  0  0  0  0
  7  1  1  0  0  0  0
  8  7  2  0  0  0  0
  8 36  1  0  0  0  0
  9  8  1  0  0  0  0
 10  9  2  0  0  0  0
 10 37  1  0  0  0  0
 11 10  1  0  0  0  0
 11 38  1  0  0  0  0
 12  7  1  0  0  0  0
 12 11  2  0  0  0  0
 12 39  1  0  0  0  0
 13  9  1  0  0  0  0
 14 13  2  0  0  0  0
 14 40  1  0  0  0  0
 15 14  1  0  0  0  0
 16 15  1  0  0  0  0
 16 41  1  0  0  0  0
 17 15  2  0  0  0  0
 18 16  1  0  0  0  0
 18 42  1  0  0  0  0
 19 17  1  0  0  0  0
 19 18  2  0  0  0  0
 19 43  1  0  0  0  0
 20 17  1  0  0  0  0
 20 44  1  0  0  0  0
 21 13  1  0  0  0  0
 21 20  2  0  0  0  0
 21 45  1  0  0  0  0
 22  4  1  0  0  0  0
 23 22  2  0  0  0  0
 23 46  1  0  0  0  0
 24 23  1  0  0  0  0
 25 24  2  0  0  0  0
 26 24  1  0  0  0  0
 26 47  1  0  0  0  0
 26 48  1  0  0  0  0
 27 25  1  0  0  0  0
 27 49  1  0  0  0  0
 28 25  1  0  0  0  0
 29 22  1  0  0  0  0
 29 27  2  0  0  0  0
 29 50  1  0  0  0  0
 30 28  1  0  0  0  0
 30 51  1  0  0  0  0
 31 28  2  0  0  0  0
 32 30  1  0  0  0  0
 32 26  1  0  0  0  0
 32 52  1  0  0  0  0
 32 53  1  0  0  0  0
M  END
$$$$
