547
 OpenBabel09202212213D

 56 60  0  0  0  0  0  0  0  0999 V2000
   19.8300   36.7050   87.0350 C   0  0  0  0  0  0  0  0  0  0  0  0
   20.9030   36.1100   86.4530 N   0  0  0  0  0  0  0  0  0  0  0  0
   21.9100   36.8350   85.8310 C   0  0  0  0  0  0  0  0  0  0  0  0
   21.8720   38.2490   85.7880 C   0  0  0  0  0  0  0  0  0  0  0  0
   20.7310   38.9210   86.4160 C   0  0  0  0  0  0  0  0  0  0  0  0
   19.7130   38.1180   87.0460 C   0  0  0  0  0  0  0  0  0  0  0  0
   23.0190   36.3390   85.2240 O   0  0  0  0  0  0  0  0  0  0  0  0
   23.7160   37.4370   84.7590 C   0  0  0  0  0  0  0  0  0  0  0  0
   22.9940   38.7220   85.1130 C   0  0  0  0  0  0  0  0  0  0  0  0
   20.6560   40.2990   86.4040 N   0  0  0  0  0  0  0  0  0  0  0  0
   20.5610   41.1010   87.6170 C   0  0  0  0  0  0  0  0  0  0  0  0
   21.8470   41.8790   87.9140 C   0  0  0  0  0  0  0  0  0  0  0  0
   22.4960   41.5540   89.2090 N   0  0  0  0  0  0  0  0  0  0  0  0
   21.6920   42.2460   90.2530 C   0  0  0  0  0  0  0  0  0  0  0  0
   22.2900   41.9790   91.6470 C   0  0  0  0  0  0  0  0  0  0  0  0
   23.7150   42.4220   91.6600 N   0  0  0  0  0  0  0  0  0  0  0  0
   24.5230   41.7290   90.6080 C   0  0  0  0  0  0  0  0  0  0  0  0
   23.9030   42.0440   89.2290 C   0  0  0  0  0  0  0  0  0  0  0  0
   23.3270   40.1430   84.8440 C   0  0  0  0  0  0  0  0  0  0  0  0
   22.6840   40.8490   83.7700 C   0  0  0  0  0  0  0  0  0  0  0  0
   23.0310   42.2150   83.5150 C   0  0  0  0  0  0  0  0  0  0  0  0
   24.0240   42.8670   84.3370 C   0  0  0  0  0  0  0  0  0  0  0  0
   24.6710   42.1610   85.4200 C   0  0  0  0  0  0  0  0  0  0  0  0
   24.3220   40.7950   85.6710 C   0  0  0  0  0  0  0  0  0  0  0  0
   25.0100   37.2820   84.0190 C   0  0  0  0  0  0  0  0  0  0  0  0
   25.0750   36.3150   82.9590 C   0  0  0  0  0  0  0  0  0  0  0  0
   26.2960   36.1500   82.2210 C   0  0  0  0  0  0  0  0  0  0  0  0
   27.4510   36.9620   82.5400 C   0  0  0  0  0  0  0  0  0  0  0  0
   27.3970   37.9260   83.5960 C   0  0  0  0  0  0  0  0  0  0  0  0
   26.1850   38.0810   84.3240 C   0  0  0  0  0  0  0  0  0  0  0  0
   19.0475   36.0876   87.5003 H   0  0  0  0  0  0  0  0  0  0  0  0
   18.8510   38.5983   87.5321 H   0  0  0  0  0  0  0  0  0  0  0  0
   20.6677   40.7833   85.4950 H   0  0  0  0  0  0  0  0  0  0  0  0
   19.7349   41.8180   87.5010 H   0  0  0  0  0  0  0  0  0  0  0  0
   20.3876   40.4128   88.4574 H   0  0  0  0  0  0  0  0  0  0  0  0
   22.5668   41.6670   87.1097 H   0  0  0  0  0  0  0  0  0  0  0  0
   21.5566   42.9382   87.9748 H   0  0  0  0  0  0  0  0  0  0  0  0
   21.6959   43.3284   90.0569 H   0  0  0  0  0  0  0  0  0  0  0  0
   20.6610   41.8636   90.2249 H   0  0  0  0  0  0  0  0  0  0  0  0
   21.7230   42.5398   92.4046 H   0  0  0  0  0  0  0  0  0  0  0  0
   22.2339   40.9043   91.8747 H   0  0  0  0  0  0  0  0  0  0  0  0
   23.7498   43.4376   91.4918 H   0  0  0  0  0  0  0  0  0  0  0  0
   25.5615   42.0903   90.6394 H   0  0  0  0  0  0  0  0  0  0  0  0
   24.5200   40.6432   90.7840 H   0  0  0  0  0  0  0  0  0  0  0  0
   23.9181   43.1303   89.0568 H   0  0  0  0  0  0  0  0  0  0  0  0
   24.4823   41.5461   88.4375 H   0  0  0  0  0  0  0  0  0  0  0  0
   21.9305   40.3437   83.1480 H   0  0  0  0  0  0  0  0  0  0  0  0
   22.5435   42.7653   82.6968 H   0  0  0  0  0  0  0  0  0  0  0  0
   24.2915   43.9149   84.1361 H   0  0  0  0  0  0  0  0  0  0  0  0
   25.4225   42.6671   86.0439 H   0  0  0  0  0  0  0  0  0  0  0  0
   24.8077   40.2426   86.4889 H   0  0  0  0  0  0  0  0  0  0  0  0
   24.1940   35.7038   82.7136 H   0  0  0  0  0  0  0  0  0  0  0  0
   26.3535   35.4060   81.4128 H   0  0  0  0  0  0  0  0  0  0  0  0
   28.3801   36.8367   81.9645 H   0  0  0  0  0  0  0  0  0  0  0  0
   28.2783   38.5371   83.8407 H   0  0  0  0  0  0  0  0  0  0  0  0
   26.1359   38.8218   85.1356 H   0  0  0  0  0  0  0  0  0  0  0  0
  1 31  1  0  0  0  0
  2  1  2  0  0  0  0
  3  2  1  0  0  0  0
  4  3  2  0  0  0  0
  5  4  1  0  0  0  0
  6  1  1  0  0  0  0
  6  5  2  0  0  0  0
  6 32  1  0  0  0  0
  7  3  1  0  0  0  0
  8  7  1  0  0  0  0
  9  8  2  0  0  0  0
  9  4  1  0  0  0  0
 10  5  1  0  0  0  0
 10 33  1  0  0  0  0
 11 10  1  0  0  0  0
 11 34  1  0  0  0  0
 11 35  1  0  0  0  0
 12 11  1  0  0  0  0
 12 36  1  0  0  0  0
 12 37  1  0  0  0  0
 13 12  1  0  0  0  0
 14 13  1  0  0  0  0
 14 38  1  0  0  0  0
 14 39  1  0  0  0  0
 15 14  1  0  0  0  0
 15 40  1  0  0  0  0
 15 41  1  0  0  0  0
 16 15  1  0  0  0  0
 16 42  1  0  0  0  0
 17 16  1  0  0  0  0
 17 43  1  0  0  0  0
 17 44  1  0  0  0  0
 18 17  1  0  0  0  0
 18 13  1  0  0  0  0
 18 45  1  0  0  0  0
 18 46  1  0  0  0  0
 19  9  1  0  0  0  0
 20 19  2  0  0  0  0
 20 47  1  0  0  0  0
 21 20  1  0  0  0  0
 21 48  1  0  0  0  0
 22 21  2  0  0  0  0
 22 49  1  0  0  0  0
 23 22  1  0  0  0  0
 23 50  1  0  0  0  0
 24 23  2  0  0  0  0
 24 19  1  0  0  0  0
 24 51  1  0  0  0  0
 25  8  1  0  0  0  0
 26 25  2  0  0  0  0
 26 52  1  0  0  0  0
 27 26  1  0  0  0  0
 27 53  1  0  0  0  0
 28 27  2  0  0  0  0
 28 54  1  0  0  0  0
 29 28  1  0  0  0  0
 29 55  1  0  0  0  0
 30 25  1  0  0  0  0
 30 29  2  0  0  0  0
 30 56  1  0  0  0  0
M  END
$$$$
