DRF
 OpenBabel10252211563D

 56 59  0  0  0  0  0  0  0  0999 V2000
    2.0570   -0.2870   36.6140 C   0  0  0  0  0  0  0  0  0  0  0  0
    2.0970   -1.0330   35.2820 C   0  0  0  0  0  0  0  0  0  0  0  0
    3.0980   -0.4090   34.4010 N   0  0  0  0  0  0  0  0  0  0  0  0
    4.3600   -0.9320   34.3080 C   0  0  0  0  0  0  0  0  0  0  0  0
    4.6580   -2.2860   34.6360 C   0  0  0  0  0  0  0  0  0  0  0  0
    5.4290   -0.0710   33.8630 C   0  0  0  0  0  0  0  0  0  0  0  0
    5.9760   -2.7740   34.5270 C   0  0  0  0  0  0  0  0  0  0  0  0
    7.0150   -1.9210   34.0920 C   0  0  0  0  0  0  0  0  0  0  0  0
    6.7420   -0.5780   33.7620 C   0  0  0  0  0  0  0  0  0  0  0  0
    5.1480    1.2270   33.5520 O   0  0  0  0  0  0  0  0  0  0  0  0
    3.8720    1.5670   33.2210 C   0  0  0  0  0  0  0  0  0  0  0  0
    2.7910    0.7140   33.6590 C   0  0  0  0  0  0  0  0  0  0  0  0
    3.6020    2.7300   32.4680 C   0  0  0  0  0  0  0  0  0  0  0  0
    1.4540    1.0730   33.3140 C   0  0  0  0  0  0  0  0  0  0  0  0
    1.1980    2.2380   32.5610 C   0  0  0  0  0  0  0  0  0  0  0  0
    2.2680    3.0640   32.1400 C   0  0  0  0  0  0  0  0  0  0  0  0
    3.3070    0.3290   36.8860 O   0  0  0  0  0  0  0  0  0  0  0  0
    3.9500   -0.4200   37.8650 C   0  0  0  0  0  0  0  0  0  0  0  0
    5.3080   -0.8030   37.6960 C   0  0  0  0  0  0  0  0  0  0  0  0
    5.9470   -1.5670   38.6810 C   0  0  0  0  0  0  0  0  0  0  0  0
    5.2510   -1.9560   39.8350 C   0  0  0  0  0  0  0  0  0  0  0  0
    3.8990   -1.5760   40.0150 C   0  0  0  0  0  0  0  0  0  0  0  0
    3.2480   -0.8090   39.0290 C   0  0  0  0  0  0  0  0  0  0  0  0
    5.8070   -2.7370   40.8600 C   0  0  0  0  0  0  0  0  0  0  0  0
    5.5830   -3.9000   41.6440 C   0  0  1  0  0  0  0  0  0  0  0  0
    4.4810   -3.9970   42.3430 C   0  0  0  0  0  0  0  0  0  0  0  0
    3.3360   -4.4190   42.0640 O   0  0  0  0  0  0  0  0  0  0  0  0
    4.2520   -3.6470   43.5710 O   0  0  0  0  0  0  0  0  0  0  0  0
    5.7260   -5.1200   40.6880 O   0  0  0  0  0  0  0  0  0  0  0  0
    7.0550   -5.3230   40.2870 C   0  0  0  0  0  0  0  0  0  0  0  0
    7.7970   -6.1050   41.3320 C   0  0  0  0  0  0  0  0  0  0  0  0
    1.2760    0.4864   36.5706 H   0  0  0  0  0  0  0  0  0  0  0  0
    1.8383   -1.0084   37.4151 H   0  0  0  0  0  0  0  0  0  0  0  0
    2.3681   -2.0844   35.4584 H   0  0  0  0  0  0  0  0  0  0  0  0
    1.1071   -0.9852   34.8046 H   0  0  0  0  0  0  0  0  0  0  0  0
    3.8541   -2.9552   34.9766 H   0  0  0  0  0  0  0  0  0  0  0  0
    6.1961   -3.8213   34.7812 H   0  0  0  0  0  0  0  0  0  0  0  0
    8.0419   -2.3068   34.0105 H   0  0  0  0  0  0  0  0  0  0  0  0
    7.5572    0.0786   33.4238 H   0  0  0  0  0  0  0  0  0  0  0  0
    4.4286    3.3757   32.1368 H   0  0  0  0  0  0  0  0  0  0  0  0
    0.6169    0.4369   33.6375 H   0  0  0  0  0  0  0  0  0  0  0  0
    0.1635    2.5056   32.3000 H   0  0  0  0  0  0  0  0  0  0  0  0
    2.0601    3.9714   31.5540 H   0  0  0  0  0  0  0  0  0  0  0  0
    5.8570   -0.4997   36.7923 H   0  0  0  0  0  0  0  0  0  0  0  0
    6.9982   -1.8629   38.5490 H   0  0  0  0  0  0  0  0  0  0  0  0
    3.3578   -1.8792   40.9234 H   0  0  0  0  0  0  0  0  0  0  0  0
    2.1970   -0.5137   39.1642 H   0  0  0  0  0  0  0  0  0  0  0  0
    6.7899   -2.9717   40.4255 H   0  0  0  0  0  0  0  0  0  0  0  0
    5.3506   -2.0979   41.6303 H   0  0  0  0  0  0  0  0  0  0  0  0
    6.3346   -3.8504   42.4456 H   0  0  0  0  0  0  0  0  0  0  0  0
    3.3549   -3.7854   43.9661 H   0  0  0  0  0  0  0  0  0  0  0  0
    7.0675   -5.8803   39.3387 H   0  0  0  0  0  0  0  0  0  0  0  0
    7.5436   -4.3464   40.1545 H   0  0  0  0  0  0  0  0  0  0  0  0
    7.4814   -5.7723   42.3319 H   0  0  0  0  0  0  0  0  0  0  0  0
    7.5751   -7.1760   41.2149 H   0  0  0  0  0  0  0  0  0  0  0  0
    8.8782   -5.9396   41.2149 H   0  0  0  0  0  0  0  0  0  0  0  0
  1 32  1  0  0  0  0
  1 33  1  0  0  0  0
  2  1  1  0  0  0  0
  2 34  1  0  0  0  0
  2 35  1  0  0  0  0
  3  2  1  0  0  0  0
  4  3  1  0  0  0  0
  5  4  2  0  0  0  0
  5 36  1  0  0  0  0
  6  4  1  0  0  0  0
  7  5  1  0  0  0  0
  7 37  1  0  0  0  0
  8  7  2  0  0  0  0
  8 38  1  0  0  0  0
  9  6  2  0  0  0  0
  9  8  1  0  0  0  0
  9 39  1  0  0  0  0
 10  6  1  0  0  0  0
 11 10  1  0  0  0  0
 12 11  2  0  0  0  0
 12  3  1  0  0  0  0
 13 11  1  0  0  0  0
 13 40  1  0  0  0  0
 14 12  1  0  0  0  0
 14 41  1  0  0  0  0
 15 14  2  0  0  0  0
 15 42  1  0  0  0  0
 16 15  1  0  0  0  0
 16 13  2  0  0  0  0
 16 43  1  0  0  0  0
 17  1  1  0  0  0  0
 18 17  1  0  0  0  0
 19 18  2  0  0  0  0
 19 44  1  0  0  0  0
 20 19  1  0  0  0  0
 20 45  1  0  0  0  0
 21 20  2  0  0  0  0
 22 21  1  0  0  0  0
 22 46  1  0  0  0  0
 23 18  1  0  0  0  0
 23 22  2  0  0  0  0
 23 47  1  0  0  0  0
 24 21  1  0  0  0  0
 24 48  1  0  0  0  0
 24 49  1  0  0  0  0
 25 24  1  0  0  0  0
 25 50  1  1  0  0  0
 26 25  1  0  0  0  0
 27 26  2  0  0  0  0
 28 26  1  0  0  0  0
 28 51  1  0  0  0  0
 29 25  1  0  0  0  0
 30 29  1  0  0  0  0
 30 52  1  0  0  0  0
 30 53  1  0  0  0  0
 31 30  1  0  0  0  0
 31 54  1  0  0  0  0
 31 55  1  0  0  0  0
 31 56  1  0  0  0  0
M  END
$$$$
