IIB
 OpenBabel06072216013D

 64 68  0  0  0  0  0  0  0  0999 V2000
    7.1930    9.1870   17.0870 C   0  0  0  0  0  0  0  0  0  0  0  0
   11.4040    4.5750   16.8180 N   0  0  0  0  0  0  0  0  0  0  0  0
    6.4100    7.9820   17.0660 C   0  0  0  0  0  0  0  0  0  0  0  0
    7.0510    6.6840   16.9970 C   0  0  0  0  0  0  0  0  0  0  0  0
    8.5060    6.6540   16.9490 C   0  0  0  0  0  0  0  0  0  0  0  0
    9.2650    7.8760   16.9710 C   0  0  0  0  0  0  0  0  0  0  0  0
    8.6170    9.1370   17.0390 C   0  0  0  0  0  0  0  0  0  0  0  0
   10.2980    4.8740   16.8240 C   0  0  0  0  0  0  0  0  0  0  0  0
    6.6340    5.3040   16.9590 N   0  0  0  0  0  0  0  0  0  0  0  0
    7.7540    4.4370   16.8810 C   0  0  0  0  0  0  0  0  0  0  0  0
    8.9000    5.2760   16.8820 C   0  0  0  0  0  0  0  0  0  0  0  0
    4.9500    8.2300   17.1160 C   0  0  0  0  0  0  0  0  0  0  0  0
    7.7400    3.0060   16.8090 C   0  0  0  0  0  0  0  0  0  0  0  0
    7.4850    2.4190   15.6210 N   0  0  0  0  0  0  0  0  0  0  0  0
    7.9070    2.3320   17.8210 O   0  0  0  0  0  0  0  0  0  0  0  0
    7.2000    0.9870   15.4860 C   0  0  0  0  0  0  0  0  0  0  0  0
    5.6940    0.7150   15.4150 C   0  0  0  0  0  0  0  0  0  0  0  0
    5.4530   -0.8140   15.2720 C   0  0  0  0  0  0  0  0  0  0  0  0
    6.2410   -1.4020   14.1230 N   0  0  0  0  0  0  0  0  0  0  0  0
    7.6990   -1.1490   14.2070 C   0  0  0  0  0  0  0  0  0  0  0  0
    7.9440    0.3740   14.2740 C   0  0  0  0  0  0  0  0  0  0  0  0
    6.0470   -2.8740   13.8340 C   0  0  0  0  0  0  0  0  0  0  0  0
    5.1190   -3.4330   14.9110 C   0  0  0  0  0  0  0  0  0  0  0  0
    7.3670   -3.6890   13.7950 C   0  0  0  0  0  0  0  0  0  0  0  0
    5.2010    4.8420   16.9950 C   0  0  0  0  0  0  0  0  0  0  0  0
    4.6000    4.5980   18.3570 C   0  0  0  0  0  0  0  0  0  0  0  0
    4.1640    5.6320   19.1300 N   0  0  0  0  0  0  0  0  0  0  0  0
    3.7210    5.1020   20.2280 O   0  0  0  0  0  0  0  0  0  0  0  0
    3.8560    3.7640   20.1840 C   0  0  0  0  0  0  0  0  0  0  0  0
    4.4230    3.3600   18.9920 C   0  0  0  0  0  0  0  0  0  0  0  0
    3.4800    2.8340   21.2750 C   0  0  0  0  0  0  0  0  0  0  0  0
    3.7870    3.2270   22.8740 S   0  0  0  0  0  0  0  0  0  0  0  0
    3.1490    1.7450   23.3600 C   0  0  0  0  0  0  0  0  0  0  0  0
    3.1180    1.3160   25.0140 Cl  0  0  0  0  0  0  0  0  0  0  0  0
    2.6800    0.9250   22.3100 C   0  0  0  0  0  0  0  0  0  0  0  0
    2.8760    1.5700   21.0600 C   0  0  0  0  0  0  0  0  0  0  0  0
    6.6863   10.1619   17.1409 H   0  0  0  0  0  0  0  0  0  0  0  0
   10.3635    7.8324   16.9346 H   0  0  0  0  0  0  0  0  0  0  0  0
    9.2069   10.0653   17.0545 H   0  0  0  0  0  0  0  0  0  0  0  0
    4.6232    8.2855   18.1649 H   0  0  0  0  0  0  0  0  0  0  0  0
    4.7219    9.1798   16.6101 H   0  0  0  0  0  0  0  0  0  0  0  0
    4.4211    7.4088   16.6101 H   0  0  0  0  0  0  0  0  0  0  0  0
    7.4908    3.0022   14.7721 H   0  0  0  0  0  0  0  0  0  0  0  0
    7.5789    0.4913   16.3919 H   0  0  0  0  0  0  0  0  0  0  0  0
    5.2115    1.0784   16.3343 H   0  0  0  0  0  0  0  0  0  0  0  0
    5.2662    1.2377   14.5468 H   0  0  0  0  0  0  0  0  0  0  0  0
    5.7584   -1.3113   16.2045 H   0  0  0  0  0  0  0  0  0  0  0  0
    4.3836   -0.9740   15.0703 H   0  0  0  0  0  0  0  0  0  0  0  0
    8.1045   -1.6275   15.1107 H   0  0  0  0  0  0  0  0  0  0  0  0
    8.1994   -1.5664   13.3208 H   0  0  0  0  0  0  0  0  0  0  0  0
    9.0226    0.5635   14.3770 H   0  0  0  0  0  0  0  0  0  0  0  0
    7.5656    0.8375   13.3510 H   0  0  0  0  0  0  0  0  0  0  0  0
    5.6171   -2.9690   12.8259 H   0  0  0  0  0  0  0  0  0  0  0  0
    5.5226   -3.1899   15.9050 H   0  0  0  0  0  0  0  0  0  0  0  0
    4.1197   -2.9865   14.8018 H   0  0  0  0  0  0  0  0  0  0  0  0
    5.0465   -4.5252   14.8018 H   0  0  0  0  0  0  0  0  0  0  0  0
    7.7011   -3.8953   14.8225 H   0  0  0  0  0  0  0  0  0  0  0  0
    7.1960   -4.6389   13.2674 H   0  0  0  0  0  0  0  0  0  0  0  0
    8.1397   -3.1105   13.2674 H   0  0  0  0  0  0  0  0  0  0  0  0
    4.5913    5.6087   16.4945 H   0  0  0  0  0  0  0  0  0  0  0  0
    5.2024    3.8595   16.5003 H   0  0  0  0  0  0  0  0  0  0  0  0
    4.6681    2.3477   18.6382 H   0  0  0  0  0  0  0  0  0  0  0  0
    2.2283   -0.0693   22.4414 H   0  0  0  0  0  0  0  0  0  0  0  0
    2.6021    1.1540   20.0792 H   0  0  0  0  0  0  0  0  0  0  0  0
  1 37  1  0  0  0  0
  3  1  2  0  0  0  0
  4  3  1  0  0  0  0
  5  4  2  0  0  0  0
  6  5  1  0  0  0  0
  6 38  1  0  0  0  0
  7  6  2  0  0  0  0
  7  1  1  0  0  0  0
  7 39  1  0  0  0  0
  8  2  3  0  0  0  0
  9  4  1  0  0  0  0
 10  9  1  0  0  0  0
 11 10  2  0  0  0  0
 11  8  1  0  0  0  0
 11  5  1  0  0  0  0
 12  3  1  0  0  0  0
 12 40  1  0  0  0  0
 12 41  1  0  0  0  0
 12 42  1  0  0  0  0
 13 10  1  0  0  0  0
 14 13  1  0  0  0  0
 14 43  1  0  0  0  0
 15 13  2  0  0  0  0
 16 14  1  0  0  0  0
 16 44  1  0  0  0  0
 17 16  1  0  0  0  0
 17 45  1  0  0  0  0
 17 46  1  0  0  0  0
 18 17  1  0  0  0  0
 18 47  1  0  0  0  0
 18 48  1  0  0  0  0
 19 18  1  0  0  0  0
 20 19  1  0  0  0  0
 20 49  1  0  0  0  0
 20 50  1  0  0  0  0
 21 20  1  0  0  0  0
 21 16  1  0  0  0  0
 21 51  1  0  0  0  0
 21 52  1  0  0  0  0
 22 19  1  0  0  0  0
 22 53  1  0  0  0  0
 23 22  1  0  0  0  0
 23 54  1  0  0  0  0
 23 55  1  0  0  0  0
 23 56  1  0  0  0  0
 24 22  1  0  0  0  0
 24 57  1  0  0  0  0
 24 58  1  0  0  0  0
 24 59  1  0  0  0  0
 25  9  1  0  0  0  0
 25 60  1  0  0  0  0
 25 61  1  0  0  0  0
 26 25  1  0  0  0  0
 27 26  2  0  0  0  0
 28 27  1  0  0  0  0
 29 28  1  0  0  0  0
 30 29  2  0  0  0  0
 30 26  1  0  0  0  0
 30 62  1  0  0  0  0
 31 29  1  0  0  0  0
 32 31  1  0  0  0  0
 33 32  1  0  0  0  0
 34 33  1  0  0  0  0
 35 33  2  0  0  0  0
 35 63  1  0  0  0  0
 36 31  2  0  0  0  0
 36 35  1  0  0  0  0
 36 64  1  0  0  0  0
M  END
$$$$
