803
 OpenBabel09202214453D

 65 67  0  0  0  0  0  0  0  0999 V2000
  -20.3090   18.7450   -8.9080 C   0  0  1  0  0  0  0  0  0  0  0  0
  -21.5960   17.8990   -9.0520 C   0  0  0  0  0  0  0  0  0  0  0  0
  -22.7910   18.5240   -8.3060 C   0  0  2  0  0  0  0  0  0  0  0  0
  -22.7760   20.0360   -8.3240 C   0  0  0  0  0  0  0  0  0  0  0  0
  -21.8730   22.1130   -8.8180 C   0  0  0  0  0  0  0  0  0  0  0  0
  -20.9310   22.9350   -9.3020 C   0  0  0  0  0  0  0  0  0  0  0  0
  -19.6760   22.4070   -9.9280 C   0  0  1  0  0  0  0  0  0  0  0  0
  -19.3870   21.0370   -9.2910 C   0  0  1  0  0  0  0  0  0  0  0  0
  -20.6010   20.1330   -9.4950 C   0  0  2  0  0  0  0  0  0  0  0  0
  -19.8510   22.2930  -11.4510 C   0  0  0  0  0  0  0  0  0  0  0  0
  -22.7620   18.0520   -6.8380 C   0  0  0  0  0  0  0  0  0  0  0  0
  -21.7940   20.7750   -8.8540 C   0  0  0  0  0  0  0  0  0  0  0  0
  -18.1870   20.3070   -9.9090 C   0  0  0  0  0  0  0  0  0  0  0  0
  -16.9160   20.5160   -9.0730 C   0  0  0  0  0  0  0  0  0  0  0  0
  -15.9590   21.3140   -9.9700 C   0  0  1  0  0  0  0  0  0  0  0  0
  -16.0140   22.6880   -9.5420 O   0  0  0  0  0  0  0  0  0  0  0  0
  -15.0040   23.1400   -8.7870 C   0  0  0  0  0  0  0  0  0  0  0  0
  -15.0090   24.2960   -8.3910 O   0  0  0  0  0  0  0  0  0  0  0  0
  -13.8680   22.2280   -8.4310 C   0  0  0  0  0  0  0  0  0  0  0  0
  -13.4270   21.4910   -9.7020 C   0  0  2  0  0  0  0  0  0  0  0  0
  -13.1530   22.3760  -10.7940 O   0  0  0  0  0  0  0  0  0  0  0  0
  -14.6080   20.5700  -10.0260 C   0  0  0  0  0  0  0  0  0  0  0  0
  -19.8840   18.9360   -7.5550 O   0  0  0  0  0  0  0  0  0  0  0  0
  -18.9990   18.0190   -7.1640 C   0  0  0  0  0  0  0  0  0  0  0  0
  -18.3240   17.3660   -7.9430 O   0  0  0  0  0  0  0  0  0  0  0  0
  -18.8970   17.8610   -5.6750 C   0  0  1  0  0  0  0  0  0  0  0  0
  -19.5740   19.0440   -4.9620 C   0  0  0  0  0  0  0  0  0  0  0  0
  -19.5670   16.5380   -5.2680 C   0  0  0  0  0  0  0  0  0  0  0  0
  -20.3900   16.7680   -3.9870 C   0  0  0  0  0  0  0  0  0  0  0  0
  -19.5063   18.2018   -9.4282 H   0  0  0  0  0  0  0  0  0  0  0  0
  -21.8485   17.8173  -10.1195 H   0  0  0  0  0  0  0  0  0  0  0  0
  -21.4015   16.9109   -8.6095 H   0  0  0  0  0  0  0  0  0  0  0  0
  -23.7045   18.1965   -8.8239 H   0  0  0  0  0  0  0  0  0  0  0  0
  -23.6287   20.5635   -7.8715 H   0  0  0  0  0  0  0  0  0  0  0  0
  -22.7668   22.5646   -8.3628 H   0  0  0  0  0  0  0  0  0  0  0  0
  -21.0829   24.0226   -9.2381 H   0  0  0  0  0  0  0  0  0  0  0  0
  -18.8291   23.0864   -9.7517 H   0  0  0  0  0  0  0  0  0  0  0  0
  -19.1633   21.2342   -8.2322 H   0  0  0  0  0  0  0  0  0  0  0  0
  -20.8156   20.0013  -10.5658 H   0  0  0  0  0  0  0  0  0  0  0  0
  -20.7537   21.7050  -11.6734 H   0  0  0  0  0  0  0  0  0  0  0  0
  -19.9525   23.2988  -11.8847 H   0  0  0  0  0  0  0  0  0  0  0  0
  -18.9720   21.7937  -11.8847 H   0  0  0  0  0  0  0  0  0  0  0  0
  -22.8156   18.9251   -6.1710 H   0  0  0  0  0  0  0  0  0  0  0  0
  -23.6213   17.3921   -6.6480 H   0  0  0  0  0  0  0  0  0  0  0  0
  -21.8284   17.5022   -6.6480 H   0  0  0  0  0  0  0  0  0  0  0  0
  -18.4095   19.2309   -9.9599 H   0  0  0  0  0  0  0  0  0  0  0  0
  -18.0121   20.7162  -10.9150 H   0  0  0  0  0  0  0  0  0  0  0  0
  -17.1467   21.0818   -8.1583 H   0  0  0  0  0  0  0  0  0  0  0  0
  -16.4749   19.5593   -8.7565 H   0  0  0  0  0  0  0  0  0  0  0  0
  -16.2285   21.3742  -11.0348 H   0  0  0  0  0  0  0  0  0  0  0  0
  -13.0289   22.8169   -8.0322 H   0  0  0  0  0  0  0  0  0  0  0  0
  -14.1869   21.5059   -7.6650 H   0  0  0  0  0  0  0  0  0  0  0  0
  -12.4828   20.9493   -9.5436 H   0  0  0  0  0  0  0  0  0  0  0  0
  -12.8794   23.2598  -10.4418 H   0  0  0  0  0  0  0  0  0  0  0  0
  -14.4707   20.1603  -11.0376 H   0  0  0  0  0  0  0  0  0  0  0  0
  -14.6306   19.7709   -9.2704 H   0  0  0  0  0  0  0  0  0  0  0  0
  -17.8378   17.8453   -5.3788 H   0  0  0  0  0  0  0  0  0  0  0  0
  -19.4966   18.9088   -3.8731 H   0  0  0  0  0  0  0  0  0  0  0  0
  -19.0752   19.9807   -5.2515 H   0  0  0  0  0  0  0  0  0  0  0  0
  -20.6343   19.0885   -5.2515 H   0  0  0  0  0  0  0  0  0  0  0  0
  -20.2301   16.1961   -6.0763 H   0  0  0  0  0  0  0  0  0  0  0  0
  -18.7986   15.7726   -5.0844 H   0  0  0  0  0  0  0  0  0  0  0  0
  -19.7551   16.5906   -3.1065 H   0  0  0  0  0  0  0  0  0  0  0  0
  -20.7597   17.8039   -3.9697 H   0  0  0  0  0  0  0  0  0  0  0  0
  -21.2432   16.0739   -3.9697 H   0  0  0  0  0  0  0  0  0  0  0  0
  1 30  1  6  0  0  0
  2  1  1  0  0  0  0
  2 31  1  0  0  0  0
  2 32  1  0  0  0  0
  3  2  1  0  0  0  0
  3 33  1  6  0  0  0
  4  3  1  0  0  0  0
  4 34  1  0  0  0  0
  5 35  1  0  0  0  0
  6  5  2  0  0  0  0
  6 36  1  0  0  0  0
  7  6  1  0  0  0  0
  7 37  1  1  0  0  0
  8  7  1  0  0  0  0
  8 38  1  1  0  0  0
  9  8  1  0  0  0  0
  9  1  1  0  0  0  0
  9 39  1  6  0  0  0
 10  7  1  0  0  0  0
 10 40  1  0  0  0  0
 10 41  1  0  0  0  0
 10 42  1  0  0  0  0
 11  3  1  0  0  0  0
 11 43  1  0  0  0  0
 11 44  1  0  0  0  0
 11 45  1  0  0  0  0
 12  4  2  0  0  0  0
 12  5  1  0  0  0  0
 12  9  1  0  0  0  0
 13  8  1  0  0  0  0
 13 46  1  0  0  0  0
 13 47  1  0  0  0  0
 14 13  1  0  0  0  0
 14 48  1  0  0  0  0
 14 49  1  0  0  0  0
 15 14  1  0  0  0  0
 15 50  1  6  0  0  0
 16 15  1  0  0  0  0
 17 16  1  0  0  0  0
 18 17  2  0  0  0  0
 19 17  1  0  0  0  0
 19 51  1  0  0  0  0
 19 52  1  0  0  0  0
 20 19  1  0  0  0  0
 20 53  1  1  0  0  0
 21 20  1  0  0  0  0
 21 54  1  0  0  0  0
 22 20  1  0  0  0  0
 22 15  1  0  0  0  0
 22 55  1  0  0  0  0
 22 56  1  0  0  0  0
 23  1  1  0  0  0  0
 24 23  1  0  0  0  0
 25 24  2  0  0  0  0
 26 24  1  0  0  0  0
 26 57  1  1  0  0  0
 27 26  1  0  0  0  0
 27 58  1  0  0  0  0
 27 59  1  0  0  0  0
 27 60  1  0  0  0  0
 28 26  1  0  0  0  0
 28 61  1  0  0  0  0
 28 62  1  0  0  0  0
 29 28  1  0  0  0  0
 29 63  1  0  0  0  0
 29 64  1  0  0  0  0
 29 65  1  0  0  0  0
M  END
$$$$
