1XU
 OpenBabel11032217103D

 56 60  0  0  0  0  0  0  0  0999 V2000
   -1.5460   11.9820   -2.9450 C   0  0  0  0  0  0  0  0  0  0  0  0
   -0.6850   11.2160   -3.7070 C   0  0  0  0  0  0  0  0  0  0  0  0
   -0.1500   11.7320   -4.8820 C   0  0  0  0  0  0  0  0  0  0  0  0
   -0.4940   13.0270   -5.2890 C   0  0  0  0  0  0  0  0  0  0  0  0
   -1.3780   13.8060   -4.5240 C   0  0  0  0  0  0  0  0  0  0  0  0
   -1.9020   13.2910   -3.3700 C   0  0  0  0  0  0  0  0  0  0  0  0
    0.0920   13.6390   -6.6320 C   0  0  0  0  0  0  0  0  0  0  0  0
    0.6700   14.9380   -6.3630 N   0  0  0  0  0  0  0  0  0  0  0  0
    2.1140   14.7880   -6.2740 C   0  0  0  0  0  0  0  0  0  0  0  0
    3.1760   15.8520   -6.9840 S   0  0  0  0  0  0  0  0  0  0  0  0
    2.6930   13.8250   -5.2640 C   0  0  0  0  0  0  0  0  0  0  0  0
    2.6230   14.1580   -3.8620 C   0  0  0  0  0  0  0  0  0  0  0  0
    3.1350   13.2900   -2.9420 C   0  0  0  0  0  0  0  0  0  0  0  0
    3.7100   12.0990   -3.4060 C   0  0  0  0  0  0  0  0  0  0  0  0
    3.7830   11.7720   -4.8170 C   0  0  0  0  0  0  0  0  0  0  0  0
    3.2840   12.6110   -5.7230 C   0  0  0  0  0  0  0  0  0  0  0  0
    3.3810   12.2020   -7.3370 Cl  0  0  0  0  0  0  0  0  0  0  0  0
    4.3250   11.0560   -2.4860 C   0  0  0  0  0  0  0  0  0  0  0  0
    4.7460   11.1420   -1.1510 C   0  0  0  0  0  0  0  0  0  0  0  0
    5.2360    9.8040   -0.8300 C   0  0  0  0  0  0  0  0  0  0  0  0
    5.0390    9.0570   -2.0240 C   0  0  0  0  0  0  0  0  0  0  0  0
    4.5160    9.8140   -2.9380 O   0  0  0  0  0  0  0  0  0  0  0  0
    5.3530    7.6330   -2.3050 C   0  0  0  0  0  0  0  0  0  0  0  0
    4.6420    6.9680   -3.0600 O   0  0  0  0  0  0  0  0  0  0  0  0
    6.3760    7.1370   -1.7300 O   0  0  0  0  0  0  0  0  0  0  0  0
   -2.1580   11.4360   -1.6660 C   0  0  0  0  0  0  0  0  0  0  0  0
   -3.4190   10.7730   -1.5840 C   0  0  0  0  0  0  0  0  0  0  0  0
   -3.5550   10.4970   -0.2580 C   0  0  0  0  0  0  0  0  0  0  0  0
   -2.4880   10.9630    0.3610 N   0  0  0  0  0  0  0  0  0  0  0  0
   -1.6840   11.5130   -0.4660 N   0  0  0  0  0  0  0  0  0  0  0  0
   -0.4360   12.1090   -0.0520 C   0  0  0  0  0  0  0  0  0  0  0  0
    0.6590   11.2740    0.3070 C   0  0  0  0  0  0  0  0  0  0  0  0
    1.8500   11.8120    0.6890 C   0  0  0  0  0  0  0  0  0  0  0  0
    1.9940   13.2120    0.7280 C   0  0  0  0  0  0  0  0  0  0  0  0
    3.4790   13.9300    1.2000 Cl  0  0  0  0  0  0  0  0  0  0  0  0
    0.8910   14.0600    0.3630 C   0  0  0  0  0  0  0  0  0  0  0  0
    1.1210   15.8330    0.4280 Cl  0  0  0  0  0  0  0  0  0  0  0  0
   -0.2840   13.5340   -0.0170 C   0  0  0  0  0  0  0  0  0  0  0  0
   -0.4227   10.1977   -3.3840 H   0  0  0  0  0  0  0  0  0  0  0  0
    0.5396   11.1264   -5.4885 H   0  0  0  0  0  0  0  0  0  0  0  0
   -1.6466   14.8216   -4.8502 H   0  0  0  0  0  0  0  0  0  0  0  0
   -2.6008   13.8916   -2.7692 H   0  0  0  0  0  0  0  0  0  0  0  0
    0.8676   12.9690   -7.0315 H   0  0  0  0  0  0  0  0  0  0  0  0
   -0.7182   13.7456   -7.3684 H   0  0  0  0  0  0  0  0  0  0  0  0
    0.1477   15.8190   -6.2532 H   0  0  0  0  0  0  0  0  0  0  0  0
    2.1614   15.1024   -3.5378 H   0  0  0  0  0  0  0  0  0  0  0  0
    3.0975   13.5185   -1.8667 H   0  0  0  0  0  0  0  0  0  0  0  0
    4.2510   10.8301   -5.1393 H   0  0  0  0  0  0  0  0  0  0  0  0
    4.7142   12.0220   -0.4918 H   0  0  0  0  0  0  0  0  0  0  0  0
    5.6618    9.4530    0.1216 H   0  0  0  0  0  0  0  0  0  0  0  0
    6.6230    6.1915   -1.8883 H   0  0  0  0  0  0  0  0  0  0  0  0
   -4.1176   10.5396   -2.4010 H   0  0  0  0  0  0  0  0  0  0  0  0
   -4.4030    9.9782    0.2128 H   0  0  0  0  0  0  0  0  0  0  0  0
    0.5418   10.1807    0.2755 H   0  0  0  0  0  0  0  0  0  0  0  0
    2.6914   11.1592    0.9644 H   0  0  0  0  0  0  0  0  0  0  0  0
   -1.1213   14.1894   -0.2986 H   0  0  0  0  0  0  0  0  0  0  0  0
  2  1  2  0  0  0  0
  2 39  1  0  0  0  0
  3  2  1  0  0  0  0
  3 40  1  0  0  0  0
  4  3  2  0  0  0  0
  5  4  1  0  0  0  0
  5 41  1  0  0  0  0
  6  5  2  0  0  0  0
  6  1  1  0  0  0  0
  6 42  1  0  0  0  0
  7  4  1  0  0  0  0
  7 43  1  0  0  0  0
  7 44  1  0  0  0  0
  8  7  1  0  0  0  0
  8 45  1  0  0  0  0
  9  8  1  0  0  0  0
 10  9  2  0  0  0  0
 11  9  1  0  0  0  0
 12 11  2  0  0  0  0
 12 46  1  0  0  0  0
 13 12  1  0  0  0  0
 13 47  1  0  0  0  0
 14 13  2  0  0  0  0
 15 14  1  0  0  0  0
 15 48  1  0  0  0  0
 16 15  2  0  0  0  0
 16 11  1  0  0  0  0
 17 16  1  0  0  0  0
 18 14  1  0  0  0  0
 19 18  2  0  0  0  0
 19 49  1  0  0  0  0
 20 19  1  0  0  0  0
 20 50  1  0  0  0  0
 21 20  2  0  0  0  0
 22 21  1  0  0  0  0
 22 18  1  0  0  0  0
 23 21  1  0  0  0  0
 24 23  2  0  0  0  0
 25 23  1  0  0  0  0
 25 51  1  0  0  0  0
 26  1  1  0  0  0  0
 27 26  2  0  0  0  0
 27 52  1  0  0  0  0
 28 27  1  0  0  0  0
 28 53  1  0  0  0  0
 29 28  2  0  0  0  0
 30 29  1  0  0  0  0
 30 26  1  0  0  0  0
 31 30  1  0  0  0  0
 32 31  2  0  0  0  0
 32 54  1  0  0  0  0
 33 32  1  0  0  0  0
 33 55  1  0  0  0  0
 34 33  2  0  0  0  0
 35 34  1  0  0  0  0
 36 34  1  0  0  0  0
 37 36  1  0  0  0  0
 38 36  2  0  0  0  0
 38 31  1  0  0  0  0
 38 56  1  0  0  0  0
M  END
$$$$
