7YG
 OpenBabel06142209443D

 54 56  0  0  0  0  0  0  0  0999 V2000
   19.9010   14.1150   13.5840 C   0  0  0  0  0  0  0  0  0  0  0  0
   18.8560   13.5120   14.2530 C   0  0  0  0  0  0  0  0  0  0  0  0
   17.5760   13.6140   13.8740 N   0  0  0  0  0  0  0  0  0  0  0  0
   17.3420   14.3790   12.7930 C   0  0  0  0  0  0  0  0  0  0  0  0
   18.3810   15.0230   12.1420 C   0  0  0  0  0  0  0  0  0  0  0  0
   19.6660   14.8860   12.5070 N   0  0  0  0  0  0  0  0  0  0  0  0
   16.0310   14.5010   12.3370 N   0  0  0  0  0  0  0  0  0  0  0  0
   21.2940   13.9150   13.9650 C   0  0  0  0  0  0  0  0  0  0  0  0
   22.2610   14.8960   13.7700 C   0  0  0  0  0  0  0  0  0  0  0  0
   23.5660   14.7150   14.1850 C   0  0  0  0  0  0  0  0  0  0  0  0
   23.9240   13.5250   14.8020 C   0  0  0  0  0  0  0  0  0  0  0  0
   22.9830   12.5280   14.9930 C   0  0  0  0  0  0  0  0  0  0  0  0
   21.6800   12.7380   14.5830 C   0  0  0  0  0  0  0  0  0  0  0  0
   25.6210   13.2370   15.3590 S   0  0  0  0  0  0  0  0  0  0  0  0
   25.5510   12.3500   16.5070 O   0  0  0  0  0  0  0  0  0  0  0  0
   26.2290   14.5470   15.4320 O   0  0  0  0  0  0  0  0  0  0  0  0
   26.2220   12.2740   14.0820 N   0  0  0  0  0  0  0  0  0  0  0  0
   26.6560   10.8980   14.3770 C   0  0  0  0  0  0  0  0  0  0  0  0
   25.6010    9.9730   13.7800 C   0  0  0  0  0  0  0  0  0  0  0  0
   25.1990    8.8360   14.6830 N   0  0  0  0  0  0  0  0  0  0  0  0
   26.2320    8.1970   15.5480 C   0  0  0  0  0  0  0  0  0  0  0  0
   23.8560    8.9440   15.3170 C   0  0  0  0  0  0  0  0  0  0  0  0
   18.1400   15.8540   10.9390 C   0  0  0  0  0  0  0  0  0  0  0  0
   18.5490   15.5120    9.8390 O   0  0  0  0  0  0  0  0  0  0  0  0
   17.4720   17.0280   11.2290 N   0  0  0  0  0  0  0  0  0  0  0  0
   16.9710   17.9610   10.3110 C   0  0  0  0  0  0  0  0  0  0  0  0
   17.8150   18.9730    9.9050 C   0  0  0  0  0  0  0  0  0  0  0  0
   17.3530   19.9350    9.0240 C   0  0  0  0  0  0  0  0  0  0  0  0
   16.0460   19.8280    8.5810 C   0  0  0  0  0  0  0  0  0  0  0  0
   15.2100   18.8450    8.9510 N   0  0  0  0  0  0  0  0  0  0  0  0
   15.6770   17.9360    9.8130 C   0  0  0  0  0  0  0  0  0  0  0  0
   19.0872   12.9144   15.1471 H   0  0  0  0  0  0  0  0  0  0  0  0
   15.8249   15.0809   11.5111 H   0  0  0  0  0  0  0  0  0  0  0  0
   15.2680   14.0113   12.8258 H   0  0  0  0  0  0  0  0  0  0  0  0
   21.9801   15.8369   13.2742 H   0  0  0  0  0  0  0  0  0  0  0  0
   24.3138   15.5063   14.0279 H   0  0  0  0  0  0  0  0  0  0  0  0
   23.2696   11.5775   15.4667 H   0  0  0  0  0  0  0  0  0  0  0  0
   20.9310   11.9503   14.7519 H   0  0  0  0  0  0  0  0  0  0  0  0
   25.4773   12.2115   13.3732 H   0  0  0  0  0  0  0  0  0  0  0  0
   27.6363   10.7023   13.9181 H   0  0  0  0  0  0  0  0  0  0  0  0
   26.7584   10.7372   15.4604 H   0  0  0  0  0  0  0  0  0  0  0  0
   24.7047   10.5701   13.5562 H   0  0  0  0  0  0  0  0  0  0  0  0
   26.0461    9.5222   12.8808 H   0  0  0  0  0  0  0  0  0  0  0  0
   25.9744    8.3564   16.6055 H   0  0  0  0  0  0  0  0  0  0  0  0
   26.2693    7.1178   15.3383 H   0  0  0  0  0  0  0  0  0  0  0  0
   27.2143    8.6455   15.3383 H   0  0  0  0  0  0  0  0  0  0  0  0
   23.9654    8.9352   16.4115 H   0  0  0  0  0  0  0  0  0  0  0  0
   23.3772    9.8835   15.0039 H   0  0  0  0  0  0  0  0  0  0  0  0
   23.2332    8.0930   15.0039 H   0  0  0  0  0  0  0  0  0  0  0  0
   17.3266   17.2403   12.2264 H   0  0  0  0  0  0  0  0  0  0  0  0
   18.8486   19.0154   10.2789 H   0  0  0  0  0  0  0  0  0  0  0  0
   18.0022   20.7566    8.6873 H   0  0  0  0  0  0  0  0  0  0  0  0
   15.6705   20.5929    7.8853 H   0  0  0  0  0  0  0  0  0  0  0  0
   15.0036   17.1310   10.1425 H   0  0  0  0  0  0  0  0  0  0  0  0
  2  1  2  0  0  0  0
  2 32  1  0  0  0  0
  3  2  1  0  0  0  0
  4  3  2  0  0  0  0
  5  4  1  0  0  0  0
  6  5  2  0  0  0  0
  6  1  1  0  0  0  0
  7  4  1  0  0  0  0
  7 33  1  0  0  0  0
  7 34  1  0  0  0  0
  8  1  1  0  0  0  0
  9  8  2  0  0  0  0
  9 35  1  0  0  0  0
 10  9  1  0  0  0  0
 10 36  1  0  0  0  0
 11 10  2  0  0  0  0
 12 11  1  0  0  0  0
 12 37  1  0  0  0  0
 13  8  1  0  0  0  0
 13 12  2  0  0  0  0
 13 38  1  0  0  0  0
 14 11  1  0  0  0  0
 15 14  2  0  0  0  0
 16 14  2  0  0  0  0
 17 14  1  0  0  0  0
 17 39  1  0  0  0  0
 18 17  1  0  0  0  0
 18 40  1  0  0  0  0
 18 41  1  0  0  0  0
 19 18  1  0  0  0  0
 19 42  1  0  0  0  0
 19 43  1  0  0  0  0
 20 19  1  0  0  0  0
 21 20  1  0  0  0  0
 21 44  1  0  0  0  0
 21 45  1  0  0  0  0
 21 46  1  0  0  0  0
 22 20  1  0  0  0  0
 22 47  1  0  0  0  0
 22 48  1  0  0  0  0
 22 49  1  0  0  0  0
 23  5  1  0  0  0  0
 24 23  2  0  0  0  0
 25 23  1  0  0  0  0
 25 50  1  0  0  0  0
 26 25  1  0  0  0  0
 27 26  2  0  0  0  0
 27 51  1  0  0  0  0
 28 27  1  0  0  0  0
 28 52  1  0  0  0  0
 29 28  2  0  0  0  0
 29 53  1  0  0  0  0
 30 29  1  0  0  0  0
 31 30  2  0  0  0  0
 31 26  1  0  0  0  0
 31 54  1  0  0  0  0
M  END
$$$$
