R94
 OpenBabel10212217203D

 75 79  0  0  0  0  0  0  0  0999 V2000
    6.3280   40.4260   17.8710 C   0  0  0  0  0  0  0  0  0  0  0  0
    6.5980   39.6210   18.9900 C   0  0  0  0  0  0  0  0  0  0  0  0
    7.8800   39.1310   19.1980 C   0  0  0  0  0  0  0  0  0  0  0  0
    8.9080   39.4410   18.2930 C   0  0  0  0  0  0  0  0  0  0  0  0
    8.6420   40.2460   17.1630 C   0  0  0  0  0  0  0  0  0  0  0  0
    7.3540   40.7340   16.9560 C   0  0  0  0  0  0  0  0  0  0  0  0
    4.9790   40.9200   17.6340 C   0  0  0  0  0  0  0  0  0  0  0  0
    3.9380   39.9990   17.6450 N   0  0  0  0  0  0  0  0  0  0  0  0
    4.7270   42.1260   17.5130 O   0  0  0  0  0  0  0  0  0  0  0  0
    2.5190   40.4530   17.7670 C   0  0  1  0  0  0  0  0  0  0  0  0
    1.9350   40.8550   16.3830 C   0  0  1  0  0  0  0  0  0  0  0  0
    0.8100   39.9820   15.8030 C   0  0  0  0  0  0  0  0  0  0  0  0
    1.2280   38.5270   15.7580 N   0  0  0  0  0  0  0  0  0  0  0  0
    0.8260   37.7230   16.9870 C   0  0  0  0  0  0  0  0  0  0  0  0
    1.8350   37.9470   18.1070 C   0  0  0  0  0  0  0  0  0  0  0  0
    1.7800   39.3920   18.6110 C   0  0  0  0  0  0  0  0  0  0  0  0
    1.4250   42.2450   16.4110 N   0  0  0  0  0  0  0  0  0  0  0  0
    1.7320   43.1130   15.3720 C   0  0  0  0  0  0  0  0  0  0  0  0
    2.6630   42.8080   14.6120 O   0  0  0  0  0  0  0  0  0  0  0  0
    1.0400   44.3920   15.2160 C   0  0  0  0  0  0  0  0  0  0  0  0
    1.7040   45.5690   15.6070 C   0  0  0  0  0  0  0  0  0  0  0  0
    1.0530   46.7920   15.4620 C   0  0  0  0  0  0  0  0  0  0  0  0
   -0.2060   46.8730   15.0170 N   0  0  0  0  0  0  0  0  0  0  0  0
   -0.8470   45.7630   14.6480 C   0  0  0  0  0  0  0  0  0  0  0  0
   -0.2670   44.5010   14.7470 C   0  0  0  0  0  0  0  0  0  0  0  0
   10.2320   38.8610   18.5000 C   0  0  0  0  0  0  0  0  0  0  0  0
   10.2830   37.6370   18.3510 O   0  0  0  0  0  0  0  0  0  0  0  0
   11.5020   39.5900   18.6670 C   0  0  0  0  0  0  0  0  0  0  0  0
   12.7490   38.9830   18.8810 C   0  0  0  0  0  0  0  0  0  0  0  0
   13.9120   39.7770   19.0000 C   0  0  0  0  0  0  0  0  0  0  0  0
   12.8690   37.6110   18.9610 O   0  0  0  0  0  0  0  0  0  0  0  0
   13.8180   41.1640   18.9240 C   0  0  0  0  0  0  0  0  0  0  0  0
   12.5810   41.8090   18.7050 C   0  0  0  0  0  0  0  0  0  0  0  0
   11.4320   41.0060   18.5900 C   0  0  0  0  0  0  0  0  0  0  0  0
   12.5080   43.1860   18.6290 N   0  0  0  0  0  0  0  0  0  0  0  0
   13.6010   43.9690   19.2420 C   0  0  0  0  0  0  0  0  0  0  0  0
   13.1200   45.3810   19.6040 C   0  0  0  0  0  0  0  0  0  0  0  0
   12.5000   46.0550   18.3750 C   0  0  0  0  0  0  0  0  0  0  0  0
   11.3390   45.2050   17.8350 C   0  0  0  0  0  0  0  0  0  0  0  0
   11.8280   43.7980   17.4680 C   0  0  0  0  0  0  0  0  0  0  0  0
    5.7942   39.3791   19.7009 H   0  0  0  0  0  0  0  0  0  0  0  0
    8.0910   38.4989   20.0732 H   0  0  0  0  0  0  0  0  0  0  0  0
    9.4462   40.4857   16.4518 H   0  0  0  0  0  0  0  0  0  0  0  0
    7.1378   41.3601   16.0778 H   0  0  0  0  0  0  0  0  0  0  0  0
    4.1465   38.9932   17.5683 H   0  0  0  0  0  0  0  0  0  0  0  0
    2.3962   41.3984   18.3157 H   0  0  0  0  0  0  0  0  0  0  0  0
    2.8041   40.7156   15.7233 H   0  0  0  0  0  0  0  0  0  0  0  0
   -0.0852   40.0808   16.4345 H   0  0  0  0  0  0  0  0  0  0  0  0
    0.5945   40.3190   14.7783 H   0  0  0  0  0  0  0  0  0  0  0  0
    0.7941   38.0918   14.9314 H   0  0  0  0  0  0  0  0  0  0  0  0
   -0.1702   38.0455   17.3239 H   0  0  0  0  0  0  0  0  0  0  0  0
    0.8035   36.6540   16.7287 H   0  0  0  0  0  0  0  0  0  0  0  0
    1.6056   37.2661   18.9399 H   0  0  0  0  0  0  0  0  0  0  0  0
    2.8439   37.7493   17.7159 H   0  0  0  0  0  0  0  0  0  0  0  0
    0.7213   39.6863   18.6625 H   0  0  0  0  0  0  0  0  0  0  0  0
    2.3029   39.3791   19.5787 H   0  0  0  0  0  0  0  0  0  0  0  0
    0.8445   42.5667   17.1987 H   0  0  0  0  0  0  0  0  0  0  0  0
    2.7221   45.5242   16.0211 H   0  0  0  0  0  0  0  0  0  0  0  0
    1.5892   47.7170   15.7206 H   0  0  0  0  0  0  0  0  0  0  0  0
   -1.8696   45.8475   14.2516 H   0  0  0  0  0  0  0  0  0  0  0  0
   -0.8330   43.6028   14.4589 H   0  0  0  0  0  0  0  0  0  0  0  0
   14.8911   39.2994   19.1526 H   0  0  0  0  0  0  0  0  0  0  0  0
   13.7567   37.1997   19.1124 H   0  0  0  0  0  0  0  0  0  0  0  0
   14.7281   41.7713   19.0371 H   0  0  0  0  0  0  0  0  0  0  0  0
   10.4547   41.4870   18.4366 H   0  0  0  0  0  0  0  0  0  0  0  0
   13.9427   43.4589   20.1547 H   0  0  0  0  0  0  0  0  0  0  0  0
   14.4259   44.0509   18.5189 H   0  0  0  0  0  0  0  0  0  0  0  0
   12.3663   45.3155   20.4025 H   0  0  0  0  0  0  0  0  0  0  0  0
   13.9778   45.9773   19.9485 H   0  0  0  0  0  0  0  0  0  0  0  0
   12.1226   47.0490   18.6570 H   0  0  0  0  0  0  0  0  0  0  0  0
   13.2676   46.1536   17.5933 H   0  0  0  0  0  0  0  0  0  0  0  0
   10.5583   45.1272   18.6060 H   0  0  0  0  0  0  0  0  0  0  0  0
   10.9346   45.6875   16.9329 H   0  0  0  0  0  0  0  0  0  0  0  0
   12.5321   43.8642   16.6255 H   0  0  0  0  0  0  0  0  0  0  0  0
   10.9663   43.1767   17.1826 H   0  0  0  0  0  0  0  0  0  0  0  0
  2  1  2  0  0  0  0
  2 41  1  0  0  0  0
  3  2  1  0  0  0  0
  3 42  1  0  0  0  0
  4  3  2  0  0  0  0
  5  4  1  0  0  0  0
  5 43  1  0  0  0  0
  6  5  2  0  0  0  0
  6  1  1  0  0  0  0
  6 44  1  0  0  0  0
  7  1  1  0  0  0  0
  8  7  1  0  0  0  0
  8 45  1  0  0  0  0
  9  7  2  0  0  0  0
 10  8  1  0  0  0  0
 10 46  1  1  0  0  0
 11 10  1  0  0  0  0
 11 47  1  6  0  0  0
 12 11  1  0  0  0  0
 12 48  1  0  0  0  0
 12 49  1  0  0  0  0
 13 12  1  0  0  0  0
 13 50  1  0  0  0  0
 14 13  1  0  0  0  0
 14 51  1  0  0  0  0
 14 52  1  0  0  0  0
 15 14  1  0  0  0  0
 15 53  1  0  0  0  0
 15 54  1  0  0  0  0
 16 15  1  0  0  0  0
 16 10  1  0  0  0  0
 16 55  1  0  0  0  0
 16 56  1  0  0  0  0
 17 11  1  0  0  0  0
 17 57  1  0  0  0  0
 18 17  1  0  0  0  0
 19 18  2  0  0  0  0
 20 18  1  0  0  0  0
 21 20  2  0  0  0  0
 21 58  1  0  0  0  0
 22 21  1  0  0  0  0
 22 59  1  0  0  0  0
 23 22  2  0  0  0  0
 24 23  1  0  0  0  0
 24 60  1  0  0  0  0
 25 24  2  0  0  0  0
 25 20  1  0  0  0  0
 25 61  1  0  0  0  0
 26  4  1  0  0  0  0
 27 26  2  0  0  0  0
 28 26  1  0  0  0  0
 29 28  2  0  0  0  0
 30 29  1  0  0  0  0
 30 62  1  0  0  0  0
 31 29  1  0  0  0  0
 31 63  1  0  0  0  0
 32 30  2  0  0  0  0
 32 64  1  0  0  0  0
 33 32  1  0  0  0  0
 34 33  2  0  0  0  0
 34 28  1  0  0  0  0
 34 65  1  0  0  0  0
 35 33  1  0  0  0  0
 36 35  1  0  0  0  0
 36 66  1  0  0  0  0
 36 67  1  0  0  0  0
 37 36  1  0  0  0  0
 37 68  1  0  0  0  0
 37 69  1  0  0  0  0
 38 37  1  0  0  0  0
 38 70  1  0  0  0  0
 38 71  1  0  0  0  0
 39 38  1  0  0  0  0
 39 72  1  0  0  0  0
 39 73  1  0  0  0  0
 40 35  1  0  0  0  0
 40 39  1  0  0  0  0
 40 74  1  0  0  0  0
 40 75  1  0  0  0  0
M  END
$$$$
