4GF
 OpenBabel09142215003D

 66 71  0  0  0  0  0  0  0  0999 V2000
   29.7090   12.2630   -8.5120 C   0  0  0  0  0  0  0  0  0  0  0  0
   29.2220   13.4360   -7.9630 C   0  0  0  0  0  0  0  0  0  0  0  0
   28.7720   13.0980   -6.6460 C   0  0  0  0  0  0  0  0  0  0  0  0
   28.9900   11.7770   -6.3720 N   0  0  0  0  0  0  0  0  0  0  0  0
   29.5350   11.2800   -7.5340 N   0  0  0  0  0  0  0  0  0  0  0  0
   30.3050   11.9120   -9.7290 N   0  0  0  0  0  0  0  0  0  0  0  0
   31.6360   11.9550  -10.0390 C   0  0  0  0  0  0  0  0  0  0  0  0
   32.5220   12.1180   -9.2010 O   0  0  0  0  0  0  0  0  0  0  0  0
   31.9510   11.8190  -11.4630 C   0  0  0  0  0  0  0  0  0  0  0  0
   31.4340   12.7130  -12.4490 C   0  0  0  0  0  0  0  0  0  0  0  0
   31.7840   12.3740  -13.7020 N   0  0  0  0  0  0  0  0  0  0  0  0
   32.6140   11.2800  -13.5590 N   0  0  0  0  0  0  0  0  0  0  0  0
   32.7700   10.9100  -12.1600 C   0  0  0  0  0  0  0  0  0  0  0  0
   33.2490   10.5250  -14.5780 C   0  0  0  0  0  0  0  0  0  0  0  0
   33.5290    9.7770  -11.8070 N   0  0  0  0  0  0  0  0  0  0  0  0
   34.1130    9.0900  -12.8300 C   0  0  0  0  0  0  0  0  0  0  0  0
   34.0180    9.4390  -14.1650 C   0  0  0  0  0  0  0  0  0  0  0  0
   29.8730    9.9000   -7.6240 C   0  0  0  0  0  0  0  0  0  0  0  0
   30.1600    9.1140   -6.4960 C   0  0  0  0  0  0  0  0  0  0  0  0
   30.3910    7.7650   -6.5560 C   0  0  0  0  0  0  0  0  0  0  0  0
   30.2400    9.7290   -5.2980 F   0  0  0  0  0  0  0  0  0  0  0  0
   30.2950    7.1200   -7.7870 C   0  0  0  0  0  0  0  0  0  0  0  0
   29.9790    7.8680   -8.9170 C   0  0  0  0  0  0  0  0  0  0  0  0
   29.7310    9.2300   -8.8380 C   0  0  0  0  0  0  0  0  0  0  0  0
   30.5370    5.6270   -7.9040 C   0  0  0  0  0  0  0  0  0  0  0  0
   31.5430    5.0560   -8.8700 C   0  0  0  0  0  0  0  0  0  0  0  0
   30.1000    4.9800   -9.1910 C   0  0  0  0  0  0  0  0  0  0  0  0
   28.2050   14.0080   -5.6010 C   0  0  0  0  0  0  0  0  0  0  0  0
   27.6570   13.2780   -4.3680 C   0  0  0  0  0  0  0  0  0  0  0  0
   27.1170   14.3040   -3.3770 C   0  0  0  0  0  0  0  0  0  0  0  0
   28.1760   15.2260   -2.9350 N   0  0  0  0  0  0  0  0  0  0  0  0
   28.6340   15.9780   -4.1160 C   0  0  0  0  0  0  0  0  0  0  0  0
   29.2450   15.0510   -5.1650 C   0  0  0  0  0  0  0  0  0  0  0  0
   27.7830   16.0930   -1.8040 C   0  0  0  0  0  0  0  0  0  0  0  0
   28.0390   15.4440   -0.4460 C   0  0  0  0  0  0  0  0  0  0  0  0
   26.3440   16.5850   -1.9320 C   0  0  0  0  0  0  0  0  0  0  0  0
   29.1875   14.4263   -8.4407 H   0  0  0  0  0  0  0  0  0  0  0  0
   29.6714   11.5855  -10.4725 H   0  0  0  0  0  0  0  0  0  0  0  0
   30.8134   13.5887  -12.2082 H   0  0  0  0  0  0  0  0  0  0  0  0
   33.1398   10.7840  -15.6415 H   0  0  0  0  0  0  0  0  0  0  0  0
   34.7008    8.1957  -12.5757 H   0  0  0  0  0  0  0  0  0  0  0  0
   34.5609    8.8468  -14.9164 H   0  0  0  0  0  0  0  0  0  0  0  0
   30.6480    7.2006   -5.6474 H   0  0  0  0  0  0  0  0  0  0  0  0
   29.9247    7.3675   -9.8951 H   0  0  0  0  0  0  0  0  0  0  0  0
   29.4211    9.7837   -9.7366 H   0  0  0  0  0  0  0  0  0  0  0  0
   30.3714    5.4935   -6.8248 H   0  0  0  0  0  0  0  0  0  0  0  0
   32.1976    5.7297   -9.4424 H   0  0  0  0  0  0  0  0  0  0  0  0
   32.3597    4.3230   -8.7950 H   0  0  0  0  0  0  0  0  0  0  0  0
   29.6855    5.5971  -10.0017 H   0  0  0  0  0  0  0  0  0  0  0  0
   29.4069    4.1668   -9.4522 H   0  0  0  0  0  0  0  0  0  0  0  0
   27.3478   14.5046   -6.0791 H   0  0  0  0  0  0  0  0  0  0  0  0
   26.8471   12.5987   -4.6723 H   0  0  0  0  0  0  0  0  0  0  0  0
   28.4615   12.6953   -3.8954 H   0  0  0  0  0  0  0  0  0  0  0  0
   26.3162   14.8828   -3.8604 H   0  0  0  0  0  0  0  0  0  0  0  0
   26.7316   13.7686   -2.4967 H   0  0  0  0  0  0  0  0  0  0  0  0
   27.7761   16.5044   -4.5598 H   0  0  0  0  0  0  0  0  0  0  0  0
   29.4061   16.6921   -3.7935 H   0  0  0  0  0  0  0  0  0  0  0  0
   30.1191   14.5390   -4.7362 H   0  0  0  0  0  0  0  0  0  0  0  0
   29.5561   15.6431   -6.0383 H   0  0  0  0  0  0  0  0  0  0  0  0
   28.4361   16.9766   -1.8560 H   0  0  0  0  0  0  0  0  0  0  0  0
   27.7620   16.1463    0.3541 H   0  0  0  0  0  0  0  0  0  0  0  0
   27.4342   14.5295   -0.3568 H   0  0  0  0  0  0  0  0  0  0  0  0
   29.1052   15.1886   -0.3568 H   0  0  0  0  0  0  0  0  0  0  0  0
   25.9160   16.7313   -0.9293 H   0  0  0  0  0  0  0  0  0  0  0  0
   26.3300   17.5390   -2.4795 H   0  0  0  0  0  0  0  0  0  0  0  0
   25.7489   15.8393   -2.4795 H   0  0  0  0  0  0  0  0  0  0  0  0
  2  1  2  0  0  0  0
  2 37  1  0  0  0  0
  3  2  1  0  0  0  0
  4  3  2  0  0  0  0
  5  4  1  0  0  0  0
  5  1  1  0  0  0  0
  6  1  1  0  0  0  0
  6 38  1  0  0  0  0
  7  6  1  0  0  0  0
  8  7  2  0  0  0  0
  9  7  1  0  0  0  0
 10  9  1  0  0  0  0
 10 39  1  0  0  0  0
 11 10  2  0  0  0  0
 12 11  1  0  0  0  0
 13 12  1  0  0  0  0
 13  9  2  0  0  0  0
 14 12  1  0  0  0  0
 14 40  1  0  0  0  0
 15 13  1  0  0  0  0
 16 15  2  0  0  0  0
 16 41  1  0  0  0  0
 17 16  1  0  0  0  0
 17 14  2  0  0  0  0
 17 42  1  0  0  0  0
 18  5  1  0  0  0  0
 19 18  2  0  0  0  0
 20 19  1  0  0  0  0
 20 43  1  0  0  0  0
 21 19  1  0  0  0  0
 22 20  2  0  0  0  0
 23 22  1  0  0  0  0
 23 44  1  0  0  0  0
 24 23  2  0  0  0  0
 24 18  1  0  0  0  0
 24 45  1  0  0  0  0
 25 22  1  0  0  0  0
 25 46  1  0  0  0  0
 26 25  1  0  0  0  0
 26 47  1  0  0  0  0
 26 48  1  0  0  0  0
 27 26  1  0  0  0  0
 27 25  1  0  0  0  0
 27 49  1  0  0  0  0
 27 50  1  0  0  0  0
 28  3  1  0  0  0  0
 28 51  1  0  0  0  0
 29 28  1  0  0  0  0
 29 52  1  0  0  0  0
 29 53  1  0  0  0  0
 30 29  1  0  0  0  0
 30 54  1  0  0  0  0
 30 55  1  0  0  0  0
 31 30  1  0  0  0  0
 32 31  1  0  0  0  0
 32 56  1  0  0  0  0
 32 57  1  0  0  0  0
 33 28  1  0  0  0  0
 33 32  1  0  0  0  0
 33 58  1  0  0  0  0
 33 59  1  0  0  0  0
 34 31  1  0  0  0  0
 34 60  1  0  0  0  0
 35 34  1  0  0  0  0
 35 61  1  0  0  0  0
 35 62  1  0  0  0  0
 35 63  1  0  0  0  0
 36 34  1  0  0  0  0
 36 64  1  0  0  0  0
 36 65  1  0  0  0  0
 36 66  1  0  0  0  0
M  END
$$$$
