OSC
 OpenBabel11082214553D

 89 93  0  0  0  0  0  0  0  0999 V2000
   18.2400  -15.2660   20.7950 N   0  0  0  0  0  0  0  0  0  0  0  0
   18.1030  -13.9470   20.0970 C   0  0  2  0  0  0  0  0  0  0  0  0
   19.5240  -15.2510   21.5420 C   0  0  1  0  0  0  0  0  0  0  0  0
   17.3430  -16.3070   20.7460 C   0  0  0  0  0  0  0  0  0  0  0  0
   19.5750  -13.5390   19.8600 C   0  0  2  0  0  0  0  0  0  0  0  0
   17.2900  -12.9300   20.9680 C   0  0  0  0  0  0  0  0  0  0  0  0
   20.1840  -13.8890   21.2400 C   0  0  0  0  0  0  0  0  0  0  0  0
   17.5600  -17.3440   21.3620 O   0  0  0  0  0  0  0  0  0  0  0  0
   19.7710  -12.0300   19.5950 C   0  0  0  0  0  0  0  0  0  0  0  0
   17.4220  -11.4760   20.4640 C   0  0  1  0  0  0  0  0  0  0  0  0
   18.9230  -11.0780   20.4910 C   0  0  0  0  0  0  0  0  0  0  0  0
   16.9030  -11.3570   19.1340 O   0  0  0  0  0  0  0  0  0  0  0  0
   19.3030  -15.3850   23.0250 C   0  0  0  0  0  0  0  0  0  0  0  0
   19.0220  -14.2840   23.7630 N   0  0  0  0  0  0  0  0  0  0  0  0
   19.3720  -16.4820   23.5420 O   0  0  0  0  0  0  0  0  0  0  0  0
   18.7900  -14.3910   25.2080 C   0  0  0  0  0  0  0  0  0  0  0  0
   19.8630  -13.6000   25.9780 C   0  0  0  0  0  0  0  0  0  0  0  0
   21.2550  -13.8310   25.4100 C   0  0  0  0  0  0  0  0  0  0  0  0
   21.9890  -15.1400   25.5040 C   0  0  0  0  0  0  0  0  0  0  0  0
   23.1470  -15.0020   24.6020 N   0  0  0  0  0  0  0  0  0  0  0  0
   23.3020  -13.5550   24.3610 C   0  0  0  0  0  0  0  0  0  0  0  0
   23.9300  -16.0150   24.0990 C   0  0  0  0  0  0  0  0  0  0  0  0
   21.9860  -12.9530   24.7710 C   0  0  0  0  0  0  0  0  0  0  0  0
   25.0320  -15.7160   23.3320 N   0  0  0  0  0  0  0  0  0  0  0  0
   23.6300  -17.2600   24.3450 N   0  0  0  0  0  0  0  0  0  0  0  0
   16.0750  -16.1860   19.9230 C   0  0  1  0  0  0  0  0  0  0  0  0
   15.7130  -17.5290   19.2550 C   0  0  0  0  0  0  0  0  0  0  0  0
   14.7340  -17.2970   18.1120 C   0  0  0  0  0  0  0  0  0  0  0  0
   15.1840  -16.7230   16.9030 C   0  0  0  0  0  0  0  0  0  0  0  0
   14.2770  -16.5000   15.8420 C   0  0  0  0  0  0  0  0  0  0  0  0
   12.9190  -16.8510   15.9900 C   0  0  0  0  0  0  0  0  0  0  0  0
   12.4630  -17.4260   17.1960 C   0  0  0  0  0  0  0  0  0  0  0  0
   13.3660  -17.6490   18.2560 C   0  0  0  0  0  0  0  0  0  0  0  0
   14.9980  -15.7350   20.7990 N   0  0  0  0  0  0  0  0  0  0  0  0
   14.2250  -14.6740   20.4510 C   0  0  0  0  0  0  0  0  0  0  0  0
   14.4100  -14.0820   19.3970 O   0  0  0  0  0  0  0  0  0  0  0  0
   13.1360  -14.2190   21.3800 C   0  0  2  0  0  0  0  0  0  0  0  0
   12.3520  -15.3500   21.7790 O   0  0  0  0  0  0  0  0  0  0  0  0
   12.2400  -13.1750   20.6990 C   0  0  0  0  0  0  0  0  0  0  0  0
   12.3420  -11.8710   21.4600 C   0  0  0  0  0  0  0  0  0  0  0  0
   11.5180  -11.6290   22.5860 C   0  0  0  0  0  0  0  0  0  0  0  0
   11.6200  -10.4060   23.2860 C   0  0  0  0  0  0  0  0  0  0  0  0
   12.5430   -9.4270   22.8590 C   0  0  0  0  0  0  0  0  0  0  0  0
   13.3630   -9.6690   21.7400 C   0  0  0  0  0  0  0  0  0  0  0  0
   13.2610  -10.8900   21.0420 C   0  0  0  0  0  0  0  0  0  0  0  0
   17.5345  -13.9828   19.1560 H   0  0  0  0  0  0  0  0  0  0  0  0
   20.1545  -16.0975   21.2323 H   0  0  0  0  0  0  0  0  0  0  0  0
   20.0115  -14.0309   18.9782 H   0  0  0  0  0  0  0  0  0  0  0  0
   16.2281  -13.2159   20.9439 H   0  0  0  0  0  0  0  0  0  0  0  0
   17.6975  -12.9664   21.9891 H   0  0  0  0  0  0  0  0  0  0  0  0
   21.2789  -13.9786   21.1832 H   0  0  0  0  0  0  0  0  0  0  0  0
   20.0038  -13.1265   22.0120 H   0  0  0  0  0  0  0  0  0  0  0  0
   20.8327  -11.7922   19.7570 H   0  0  0  0  0  0  0  0  0  0  0  0
   19.4315  -11.8571   18.5631 H   0  0  0  0  0  0  0  0  0  0  0  0
   16.8437  -10.8047   21.1159 H   0  0  0  0  0  0  0  0  0  0  0  0
   19.0283  -10.0475   20.1209 H   0  0  0  0  0  0  0  0  0  0  0  0
   19.2869  -11.1556   21.5262 H   0  0  0  0  0  0  0  0  0  0  0  0
   15.9389  -11.1359   19.1746 H   0  0  0  0  0  0  0  0  0  0  0  0
   18.9707  -13.3628   23.3052 H   0  0  0  0  0  0  0  0  0  0  0  0
   17.7965  -13.9841   25.4477 H   0  0  0  0  0  0  0  0  0  0  0  0
   18.8432  -15.4494   25.5030 H   0  0  0  0  0  0  0  0  0  0  0  0
   19.6271  -12.5274   25.9158 H   0  0  0  0  0  0  0  0  0  0  0  0
   19.8589  -13.9472   27.0218 H   0  0  0  0  0  0  0  0  0  0  0  0
   22.3239  -15.3208   26.5361 H   0  0  0  0  0  0  0  0  0  0  0  0
   21.3495  -15.9899   25.2235 H   0  0  0  0  0  0  0  0  0  0  0  0
   24.1215  -13.1464   24.9705 H   0  0  0  0  0  0  0  0  0  0  0  0
   23.5509  -13.3334   23.3127 H   0  0  0  0  0  0  0  0  0  0  0  0
   21.6799  -11.9172   24.5625 H   0  0  0  0  0  0  0  0  0  0  0  0
   25.6184  -16.4744   22.9553 H   0  0  0  0  0  0  0  0  0  0  0  0
   24.2185  -18.0160   23.9668 H   0  0  0  0  0  0  0  0  0  0  0  0
   22.8045  -17.4874   24.9175 H   0  0  0  0  0  0  0  0  0  0  0  0
   16.2302  -15.4561   19.1148 H   0  0  0  0  0  0  0  0  0  0  0  0
   16.6270  -17.9979   18.8618 H   0  0  0  0  0  0  0  0  0  0  0  0
   15.2458  -18.1883   20.0014 H   0  0  0  0  0  0  0  0  0  0  0  0
   16.2429  -16.4487   16.7865 H   0  0  0  0  0  0  0  0  0  0  0  0
   14.6302  -16.0528   14.9011 H   0  0  0  0  0  0  0  0  0  0  0  0
   12.2138  -16.6764   15.1641 H   0  0  0  0  0  0  0  0  0  0  0  0
   11.4037  -17.7000   17.3088 H   0  0  0  0  0  0  0  0  0  0  0  0
   13.0100  -18.0963   19.1958 H   0  0  0  0  0  0  0  0  0  0  0  0
   14.8230  -16.2252   21.6878 H   0  0  0  0  0  0  0  0  0  0  0  0
   13.5943  -13.7535   22.2650 H   0  0  0  0  0  0  0  0  0  0  0  0
   12.3195  -15.3969   22.7674 H   0  0  0  0  0  0  0  0  0  0  0  0
   12.5720  -13.0239   19.6612 H   0  0  0  0  0  0  0  0  0  0  0  0
   11.1969  -13.5242   20.6956 H   0  0  0  0  0  0  0  0  0  0  0  0
   10.7986  -12.3931   22.9156 H   0  0  0  0  0  0  0  0  0  0  0  0
   10.9817  -10.2171   24.1617 H   0  0  0  0  0  0  0  0  0  0  0  0
   12.6219   -8.4733   23.4014 H   0  0  0  0  0  0  0  0  0  0  0  0
   14.0831   -8.9056   21.4104 H   0  0  0  0  0  0  0  0  0  0  0  0
   13.9019  -11.0766   20.1677 H   0  0  0  0  0  0  0  0  0  0  0  0
  2  1  1  0  0  0  0
  2 46  1  6  0  0  0
  3  1  1  0  0  0  0
  3 47  1  6  0  0  0
  4  1  1  0  0  0  0
  5  2  1  0  0  0  0
  5 48  1  6  0  0  0
  6  2  1  0  0  0  0
  6 49  1  0  0  0  0
  6 50  1  0  0  0  0
  7  5  1  0  0  0  0
  7  3  1  0  0  0  0
  7 51  1  0  0  0  0
  7 52  1  0  0  0  0
  8  4  2  0  0  0  0
  9  5  1  0  0  0  0
  9 53  1  0  0  0  0
  9 54  1  0  0  0  0
 10  6  1  0  0  0  0
 10 55  1  1  0  0  0
 11 10  1  0  0  0  0
 11  9  1  0  0  0  0
 11 56  1  0  0  0  0
 11 57  1  0  0  0  0
 12 10  1  0  0  0  0
 12 58  1  0  0  0  0
 13  3  1  0  0  0  0
 14 13  1  0  0  0  0
 14 59  1  0  0  0  0
 15 13  2  0  0  0  0
 16 14  1  0  0  0  0
 16 60  1  0  0  0  0
 16 61  1  0  0  0  0
 17 16  1  0  0  0  0
 17 62  1  0  0  0  0
 17 63  1  0  0  0  0
 18 17  1  0  0  0  0
 19 18  1  0  0  0  0
 19 64  1  0  0  0  0
 19 65  1  0  0  0  0
 20 19  1  0  0  0  0
 21 20  1  0  0  0  0
 21 66  1  0  0  0  0
 21 67  1  0  0  0  0
 22 20  1  0  0  0  0
 23 18  2  0  0  0  0
 23 21  1  0  0  0  0
 23 68  1  0  0  0  0
 24 22  2  0  0  0  0
 24 69  1  0  0  0  0
 25 22  1  0  0  0  0
 25 70  1  0  0  0  0
 25 71  1  0  0  0  0
 26  4  1  0  0  0  0
 26 72  1  6  0  0  0
 27 26  1  0  0  0  0
 27 73  1  0  0  0  0
 27 74  1  0  0  0  0
 28 27  1  0  0  0  0
 29 28  2  0  0  0  0
 29 75  1  0  0  0  0
 30 29  1  0  0  0  0
 30 76  1  0  0  0  0
 31 30  2  0  0  0  0
 31 77  1  0  0  0  0
 32 31  1  0  0  0  0
 32 78  1  0  0  0  0
 33 32  2  0  0  0  0
 33 28  1  0  0  0  0
 33 79  1  0  0  0  0
 34 26  1  0  0  0  0
 34 80  1  0  0  0  0
 35 34  1  0  0  0  0
 36 35  2  0  0  0  0
 37 35  1  0  0  0  0
 37 81  1  1  0  0  0
 38 37  1  0  0  0  0
 38 82  1  0  0  0  0
 39 37  1  0  0  0  0
 39 83  1  0  0  0  0
 39 84  1  0  0  0  0
 40 39  1  0  0  0  0
 41 40  2  0  0  0  0
 41 85  1  0  0  0  0
 42 41  1  0  0  0  0
 42 86  1  0  0  0  0
 43 42  2  0  0  0  0
 43 87  1  0  0  0  0
 44 43  1  0  0  0  0
 44 88  1  0  0  0  0
 45 40  1  0  0  0  0
 45 44  2  0  0  0  0
 45 89  1  0  0  0  0
M  END
$$$$
