3EA
 OpenBabel10252211573D

 57 60  0  0  0  0  0  0  0  0999 V2000
    6.4020   -0.8860   36.6130 O   0  0  0  0  0  0  0  0  0  0  0  0
    5.4600   -0.2650   35.8530 C   0  0  0  0  0  0  0  0  0  0  0  0
    5.7740    0.4040   34.6700 C   0  0  0  0  0  0  0  0  0  0  0  0
    4.7720    0.9640   33.8890 C   0  0  0  0  0  0  0  0  0  0  0  0
    3.4470    0.8530   34.2990 C   0  0  0  0  0  0  0  0  0  0  0  0
    2.2490    1.3180   33.7760 C   0  0  0  0  0  0  0  0  0  0  0  0
    3.1430    0.1810   35.4800 C   0  0  0  0  0  0  0  0  0  0  0  0
    1.2400    0.9510   34.5650 N   0  0  0  0  0  0  0  0  0  0  0  0
    1.7860    0.2340   35.6470 O   0  0  0  0  0  0  0  0  0  0  0  0
    4.1340   -0.3840   36.2690 C   0  0  0  0  0  0  0  0  0  0  0  0
    2.0570    2.2050   32.5400 C   0  0  0  0  0  0  0  0  0  0  0  0
    2.4160    1.5080   31.4700 F   0  0  0  0  0  0  0  0  0  0  0  0
    2.7910    3.3100   32.5970 F   0  0  0  0  0  0  0  0  0  0  0  0
    0.7840    2.5640   32.3940 F   0  0  0  0  0  0  0  0  0  0  0  0
    3.7910   -1.1830   37.5300 C   0  0  0  0  0  0  0  0  0  0  0  0
    3.1790   -0.3100   38.6240 C   0  0  0  0  0  0  0  0  0  0  0  0
    4.2900    0.4460   39.3540 C   0  0  0  0  0  0  0  0  0  0  0  0
    7.2720   -1.8130   35.9420 C   0  0  0  0  0  0  0  0  0  0  0  0
    6.5910   -3.1760   36.0490 C   0  0  0  0  0  0  0  0  0  0  0  0
    7.5240   -4.0300   36.9090 C   0  0  0  0  0  0  0  0  0  0  0  0
    8.0300   -3.2630   38.0080 O   0  0  0  0  0  0  0  0  0  0  0  0
    7.4920   -3.6880   39.1810 C   0  0  0  0  0  0  0  0  0  0  0  0
    7.9940   -4.8380   39.7880 C   0  0  0  0  0  0  0  0  0  0  0  0
    7.3580   -5.3380   40.9170 C   0  0  0  0  0  0  0  0  0  0  0  0
    6.2430   -4.6830   41.4410 C   0  0  0  0  0  0  0  0  0  0  0  0
    7.5520   -6.4270   41.6590 C   0  0  0  0  0  0  0  0  0  0  0  0
    5.7550   -3.5270   40.8420 C   0  0  0  0  0  0  0  0  0  0  0  0
    5.8380   -5.4140   42.4730 N   0  0  0  0  0  0  0  0  0  0  0  0
    6.3830   -3.0300   39.7020 C   0  0  0  0  0  0  0  0  0  0  0  0
    6.6220   -6.4840   42.6080 C   0  0  0  0  0  0  0  0  0  0  0  0
    4.7870   -5.0150   43.4220 C   0  0  0  0  0  0  0  0  0  0  0  0
    3.4540   -5.6500   43.0110 C   0  0  0  0  0  0  0  0  0  0  0  0
    3.2230   -6.8140   43.4040 O   0  0  0  0  0  0  0  0  0  0  0  0
    2.6950   -4.9500   42.3060 O   0  0  0  0  0  0  0  0  0  0  0  0
    6.8240    0.4886   34.3533 H   0  0  0  0  0  0  0  0  0  0  0  0
    5.0229    1.4899   32.9560 H   0  0  0  0  0  0  0  0  0  0  0  0
    3.0719   -1.9717   37.2638 H   0  0  0  0  0  0  0  0  0  0  0  0
    4.7267   -1.6069   37.9234 H   0  0  0  0  0  0  0  0  0  0  0  0
    2.4817    0.4102   38.1712 H   0  0  0  0  0  0  0  0  0  0  0  0
    2.6365   -0.9454   39.3395 H   0  0  0  0  0  0  0  0  0  0  0  0
    4.1471    0.3488   40.4403 H   0  0  0  0  0  0  0  0  0  0  0  0
    5.2663    0.0240   39.0734 H   0  0  0  0  0  0  0  0  0  0  0  0
    4.2557    1.5090   39.0734 H   0  0  0  0  0  0  0  0  0  0  0  0
    7.3945   -1.5279   34.8867 H   0  0  0  0  0  0  0  0  0  0  0  0
    8.2752   -1.8254   36.3931 H   0  0  0  0  0  0  0  0  0  0  0  0
    5.6067   -3.0777   36.5301 H   0  0  0  0  0  0  0  0  0  0  0  0
    6.4197   -3.6264   35.0602 H   0  0  0  0  0  0  0  0  0  0  0  0
    6.9680   -4.8963   37.2969 H   0  0  0  0  0  0  0  0  0  0  0  0
    8.3685   -4.3693   36.2913 H   0  0  0  0  0  0  0  0  0  0  0  0
    8.8816   -5.3426   39.3785 H   0  0  0  0  0  0  0  0  0  0  0  0
    8.3553   -7.1636   41.5102 H   0  0  0  0  0  0  0  0  0  0  0  0
    4.8810   -3.0096   41.2644 H   0  0  0  0  0  0  0  0  0  0  0  0
    6.0028   -2.1197   39.2153 H   0  0  0  0  0  0  0  0  0  0  0  0
    6.5182   -7.2725   43.3680 H   0  0  0  0  0  0  0  0  0  0  0  0
    5.0581   -5.3549   44.4324 H   0  0  0  0  0  0  0  0  0  0  0  0
    4.6866   -3.9196   43.4161 H   0  0  0  0  0  0  0  0  0  0  0  0
    1.8211   -5.3100   42.0116 H   0  0  0  0  0  0  0  0  0  0  0  0
  2  1  1  0  0  0  0
  3  2  2  0  0  0  0
  3 35  1  0  0  0  0
  4  3  1  0  0  0  0
  4 36  1  0  0  0  0
  5  4  2  0  0  0  0
  6  5  1  0  0  0  0
  7  5  1  0  0  0  0
  8  6  2  0  0  0  0
  9  8  1  0  0  0  0
  9  7  1  0  0  0  0
 10  7  2  0  0  0  0
 10  2  1  0  0  0  0
 11  6  1  0  0  0  0
 12 11  1  0  0  0  0
 13 11  1  0  0  0  0
 14 11  1  0  0  0  0
 15 10  1  0  0  0  0
 15 37  1  0  0  0  0
 15 38  1  0  0  0  0
 16 15  1  0  0  0  0
 16 39  1  0  0  0  0
 16 40  1  0  0  0  0
 17 16  1  0  0  0  0
 17 41  1  0  0  0  0
 17 42  1  0  0  0  0
 17 43  1  0  0  0  0
 18  1  1  0  0  0  0
 18 44  1  0  0  0  0
 18 45  1  0  0  0  0
 19 18  1  0  0  0  0
 19 46  1  0  0  0  0
 19 47  1  0  0  0  0
 20 19  1  0  0  0  0
 20 48  1  0  0  0  0
 20 49  1  0  0  0  0
 21 20  1  0  0  0  0
 22 21  1  0  0  0  0
 23 22  2  0  0  0  0
 23 50  1  0  0  0  0
 24 23  1  0  0  0  0
 25 24  2  0  0  0  0
 26 24  1  0  0  0  0
 26 51  1  0  0  0  0
 27 25  1  0  0  0  0
 27 52  1  0  0  0  0
 28 25  1  0  0  0  0
 29 27  2  0  0  0  0
 29 22  1  0  0  0  0
 29 53  1  0  0  0  0
 30 26  2  0  0  0  0
 30 28  1  0  0  0  0
 30 54  1  0  0  0  0
 31 28  1  0  0  0  0
 31 55  1  0  0  0  0
 31 56  1  0  0  0  0
 32 31  1  0  0  0  0
 33 32  2  0  0  0  0
 34 32  1  0  0  0  0
 34 57  1  0  0  0  0
M  END
$$$$
