HFS
 OpenBabel11032217073D

 38 40  0  0  0  0  0  0  0  0999 V2000
   50.4890   99.3050   26.0150 C   0  0  0  0  0  0  0  0  0  0  0  0
   50.0270  100.1480   25.0780 N   0  0  0  0  0  0  0  0  0  0  0  0
   50.6900   98.1020   25.7330 O   0  0  0  0  0  0  0  0  0  0  0  0
   49.7940  101.4520   25.3310 C   0  0  0  0  0  0  0  0  0  0  0  0
   50.0110  102.0360   26.5830 C   0  0  0  0  0  0  0  0  0  0  0  0
   50.4900  101.2660   27.6410 C   0  0  0  0  0  0  0  0  0  0  0  0
   50.7560  101.8000   29.0160 C   0  0  0  0  0  0  0  0  0  0  0  0
   51.2330  100.8980   29.9730 C   0  0  0  0  0  0  0  0  0  0  0  0
   51.4650   99.5510   29.6810 C   0  0  0  0  0  0  0  0  0  0  0  0
   51.2330   99.0160   28.4130 C   0  0  0  0  0  0  0  0  0  0  0  0
   50.7530   99.8250   27.3850 C   0  0  0  0  0  0  0  0  0  0  0  0
   50.5040  103.3370   29.4050 S   0  0  0  0  0  0  0  0  0  0  0  0
   50.7820  104.1780   28.2760 O   0  0  0  0  0  0  0  0  0  0  0  0
   49.1200  103.4990   29.7560 O   0  0  0  0  0  0  0  0  0  0  0  0
   51.4040  103.7570   30.5730 N   0  0  0  0  0  0  0  0  0  0  0  0
   50.8410  103.8740   31.9240 C   0  0  0  0  0  0  0  0  0  0  0  0
   51.4390  102.7540   32.7810 C   0  0  0  0  0  0  0  0  0  0  0  0
   52.8860  103.0640   33.1740 C   0  0  0  0  0  0  0  0  0  0  0  0
   53.8590  102.6910   32.1560 N   0  0  0  0  0  0  0  0  0  0  0  0
   53.6280  102.8350   30.7240 C   0  0  0  0  0  0  0  0  0  0  0  0
   52.8170  104.0770   30.3450 C   0  0  0  0  0  0  0  0  0  0  0  0
   51.0307   97.4816   26.4252 H   0  0  0  0  0  0  0  0  0  0  0  0
   49.4159  102.0854   24.5150 H   0  0  0  0  0  0  0  0  0  0  0  0
   49.8031  103.1057   26.7330 H   0  0  0  0  0  0  0  0  0  0  0  0
   51.4326  101.2619   30.9917 H   0  0  0  0  0  0  0  0  0  0  0  0
   51.8426   98.8913   30.4761 H   0  0  0  0  0  0  0  0  0  0  0  0
   51.4300   97.9504   28.2242 H   0  0  0  0  0  0  0  0  0  0  0  0
   51.1005  104.8528   32.3537 H   0  0  0  0  0  0  0  0  0  0  0  0
   49.7448  103.7883   31.8914 H   0  0  0  0  0  0  0  0  0  0  0  0
   50.8363  102.6414   33.6943 H   0  0  0  0  0  0  0  0  0  0  0  0
   51.4315  101.8252   32.1917 H   0  0  0  0  0  0  0  0  0  0  0  0
   52.9724  104.1450   33.3583 H   0  0  0  0  0  0  0  0  0  0  0  0
   53.1119  102.4677   34.0703 H   0  0  0  0  0  0  0  0  0  0  0  0
   54.7043  103.2428   32.3605 H   0  0  0  0  0  0  0  0  0  0  0  0
   54.6042  102.8926   30.2204 H   0  0  0  0  0  0  0  0  0  0  0  0
   53.0386  101.9618   30.4077 H   0  0  0  0  0  0  0  0  0  0  0  0
   53.1167  104.9291   30.9728 H   0  0  0  0  0  0  0  0  0  0  0  0
   52.9910  104.3520   29.2942 H   0  0  0  0  0  0  0  0  0  0  0  0
  2  1  2  0  0  0  0
  3  1  1  0  0  0  0
  3 22  1  0  0  0  0
  4  2  1  0  0  0  0
  4 23  1  0  0  0  0
  5  4  2  0  0  0  0
  5 24  1  0  0  0  0
  6  5  1  0  0  0  0
  7  6  2  0  0  0  0
  8  7  1  0  0  0  0
  8 25  1  0  0  0  0
  9  8  2  0  0  0  0
  9 26  1  0  0  0  0
 10  9  1  0  0  0  0
 10 27  1  0  0  0  0
 11  1  1  0  0  0  0
 11 10  2  0  0  0  0
 11  6  1  0  0  0  0
 12  7  1  0  0  0  0
 13 12  2  0  0  0  0
 14 12  2  0  0  0  0
 15 12  1  0  0  0  0
 16 15  1  0  0  0  0
 16 28  1  0  0  0  0
 16 29  1  0  0  0  0
 17 16  1  0  0  0  0
 17 30  1  0  0  0  0
 17 31  1  0  0  0  0
 18 17  1  0  0  0  0
 18 32  1  0  0  0  0
 18 33  1  0  0  0  0
 19 18  1  0  0  0  0
 19 34  1  0  0  0  0
 20 19  1  0  0  0  0
 20 35  1  0  0  0  0
 20 36  1  0  0  0  0
 21 20  1  0  0  0  0
 21 15  1  0  0  0  0
 21 37  1  0  0  0  0
 21 38  1  0  0  0  0
M  END
$$$$
