676
 OpenBabel10052215523D

 52 55  0  0  0  0  0  0  0  0999 V2000
  169.5940 -122.3600    2.9300 C   0  0  0  0  0  0  0  0  0  0  0  0
  170.4070 -124.4490    2.3960 C   0  0  0  0  0  0  0  0  0  0  0  0
  169.9520 -123.2260    1.8850 C   0  0  0  0  0  0  0  0  0  0  0  0
  170.3680 -124.3740    3.7720 C   0  0  0  0  0  0  0  0  0  0  0  0
  169.7630 -123.1190    4.1320 N   0  0  0  0  0  0  0  0  0  0  0  0
  169.9540 -122.5200    5.4730 C   0  0  2  0  0  0  0  0  0  0  0  0
  169.7020 -123.6380    6.4950 C   0  0  0  0  0  0  0  0  0  0  0  0
  170.4400 -124.8440    6.1340 N   0  0  0  0  0  0  0  0  0  0  0  0
  170.6790 -125.2940    4.8940 C   0  0  0  0  0  0  0  0  0  0  0  0
  171.1390 -126.4080    4.6610 O   0  0  0  0  0  0  0  0  0  0  0  0
  168.8480 -121.4860    5.7880 C   0  0  0  0  0  0  0  0  0  0  0  0
  169.2330 -120.0510    5.4570 C   0  0  0  0  0  0  0  0  0  0  0  0
  168.9570 -119.6060    4.2170 N   0  0  0  0  0  0  0  0  0  0  0  0
  169.8130 -119.3610    6.2980 O   0  0  0  0  0  0  0  0  0  0  0  0
  169.2330 -118.2360    3.7490 C   0  0  2  0  0  0  0  0  0  0  0  0
  168.0280 -117.3850    4.2160 C   0  0  0  0  0  0  0  0  0  0  0  0
  168.4620 -116.2980    5.0900 N   0  0  0  0  0  0  0  0  0  0  0  0
  169.3540 -118.0520    2.2700 C   0  0  0  0  0  0  0  0  0  0  0  0
  168.1960 -118.1940    1.4760 C   0  0  0  0  0  0  0  0  0  0  0  0
  168.2530 -118.0480    0.0810 C   0  0  0  0  0  0  0  0  0  0  0  0
  169.4790 -117.7590   -0.5320 C   0  0  0  0  0  0  0  0  0  0  0  0
  170.6340 -117.6130    0.2650 C   0  0  0  0  0  0  0  0  0  0  0  0
  170.5710 -117.7670    1.6500 C   0  0  0  0  0  0  0  0  0  0  0  0
  169.7940 -122.9190    0.4270 C   0  0  0  0  0  0  0  0  0  0  0  0
  170.2150 -123.8670   -0.5060 C   0  0  0  0  0  0  0  0  0  0  0  0
  170.0270 -123.6740   -1.8730 C   0  0  0  0  0  0  0  0  0  0  0  0
  169.4040 -122.5560   -2.3050 N   0  0  0  0  0  0  0  0  0  0  0  0
  168.9600 -121.6200   -1.4140 C   0  0  0  0  0  0  0  0  0  0  0  0
  169.1210 -121.7870   -0.0330 C   0  0  0  0  0  0  0  0  0  0  0  0
  168.3480 -120.5190   -1.8880 F   0  0  0  0  0  0  0  0  0  0  0  0
  169.2548 -121.3172    2.8435 H   0  0  0  0  0  0  0  0  0  0  0  0
  170.7369 -125.3154    1.8040 H   0  0  0  0  0  0  0  0  0  0  0  0
  170.9528 -122.0605    5.5088 H   0  0  0  0  0  0  0  0  0  0  0  0
  170.0289 -123.2988    7.4890 H   0  0  0  0  0  0  0  0  0  0  0  0
  168.6271 -123.8714    6.5054 H   0  0  0  0  0  0  0  0  0  0  0  0
  170.8154 -125.4066    6.9108 H   0  0  0  0  0  0  0  0  0  0  0  0
  167.9529 -121.7478    5.2047 H   0  0  0  0  0  0  0  0  0  0  0  0
  168.6720 -121.5272    6.8730 H   0  0  0  0  0  0  0  0  0  0  0  0
  168.5255 -120.2647    3.5531 H   0  0  0  0  0  0  0  0  0  0  0  0
  170.2135 -117.9518    4.1586 H   0  0  0  0  0  0  0  0  0  0  0  0
  167.5253 -116.9593    3.3350 H   0  0  0  0  0  0  0  0  0  0  0  0
  167.3386 -118.0324    4.7778 H   0  0  0  0  0  0  0  0  0  0  0  0
  168.3486 -116.5821    6.0735 H   0  0  0  0  0  0  0  0  0  0  0  0
  169.4528 -116.0845    4.9064 H   0  0  0  0  0  0  0  0  0  0  0  0
  167.2339 -118.4226    1.9577 H   0  0  0  0  0  0  0  0  0  0  0  0
  167.3424 -118.1596   -0.5258 H   0  0  0  0  0  0  0  0  0  0  0  0
  169.5406 -117.6469   -1.6245 H   0  0  0  0  0  0  0  0  0  0  0  0
  171.5963 -117.3747   -0.2117 H   0  0  0  0  0  0  0  0  0  0  0  0
  171.4837 -117.6634    2.2552 H   0  0  0  0  0  0  0  0  0  0  0  0
  170.7059 -124.7866   -0.1548 H   0  0  0  0  0  0  0  0  0  0  0  0
  170.3826 -124.4251   -2.5937 H   0  0  0  0  0  0  0  0  0  0  0  0
  168.7256 -121.0422    0.6733 H   0  0  0  0  0  0  0  0  0  0  0  0
  1 31  1  0  0  0  0
  2 32  1  0  0  0  0
  3  2  1  0  0  0  0
  3  1  2  0  0  0  0
  4  2  2  0  0  0  0
  5  4  1  0  0  0  0
  5  1  1  0  0  0  0
  6  5  1  0  0  0  0
  6 33  1  1  0  0  0
  7  6  1  0  0  0  0
  7 34  1  0  0  0  0
  7 35  1  0  0  0  0
  8  7  1  0  0  0  0
  8 36  1  0  0  0  0
  9  4  1  0  0  0  0
  9  8  1  0  0  0  0
 10  9  2  0  0  0  0
 11  6  1  0  0  0  0
 11 37  1  0  0  0  0
 11 38  1  0  0  0  0
 12 11  1  0  0  0  0
 13 12  1  0  0  0  0
 13 39  1  0  0  0  0
 14 12  2  0  0  0  0
 15 13  1  0  0  0  0
 15 40  1  1  0  0  0
 16 15  1  0  0  0  0
 16 41  1  0  0  0  0
 16 42  1  0  0  0  0
 17 16  1  0  0  0  0
 17 43  1  0  0  0  0
 17 44  1  0  0  0  0
 18 15  1  0  0  0  0
 19 18  2  0  0  0  0
 19 45  1  0  0  0  0
 20 19  1  0  0  0  0
 20 46  1  0  0  0  0
 21 20  2  0  0  0  0
 21 47  1  0  0  0  0
 22 21  1  0  0  0  0
 22 48  1  0  0  0  0
 23 22  2  0  0  0  0
 23 18  1  0  0  0  0
 23 49  1  0  0  0  0
 24  3  1  0  0  0  0
 25 24  2  0  0  0  0
 25 50  1  0  0  0  0
 26 25  1  0  0  0  0
 26 51  1  0  0  0  0
 27 26  2  0  0  0  0
 28 27  1  0  0  0  0
 29 28  2  0  0  0  0
 29 24  1  0  0  0  0
 29 52  1  0  0  0  0
 30 28  1  0  0  0  0
M  END
$$$$
