512
 OpenBabel11032217003D

 19 19  0  0  0  0  0  0  0  0999 V2000
   44.5850   19.6030    0.7050 C   0  0  0  0  0  0  0  0  0  0  0  0
   45.3330   18.4330    0.4450 C   0  0  0  0  0  0  0  0  0  0  0  0
   43.0200   19.1530    1.1900 S   0  0  0  0  0  0  0  0  0  0  0  0
   43.2740   17.4720    1.0690 C   0  0  0  0  0  0  0  0  0  0  0  0
   44.6090   17.2240    0.6460 C   0  0  0  0  0  0  0  0  0  0  0  0
   47.1280   18.4950   -0.1120 Br  0  0  0  0  0  0  0  0  0  0  0  0
   45.2370   15.9400    0.4240 O   0  0  0  0  0  0  0  0  0  0  0  0
   45.6600   15.2790    1.6360 C   0  0  0  0  0  0  0  0  0  0  0  0
   47.0920   14.7550    1.5120 C   0  0  0  0  0  0  0  0  0  0  0  0
   47.2410   13.7390    0.6480 O   0  0  0  0  0  0  0  0  0  0  0  0
   48.0070   15.1990    2.1320 O   0  0  0  0  0  0  0  0  0  0  0  0
   42.2630   16.5500    1.3620 C   0  0  0  0  0  0  0  0  0  0  0  0
   42.3710   15.9620    2.5690 O   0  0  0  0  0  0  0  0  0  0  0  0
   41.3580   16.2930    0.6040 O   0  0  0  0  0  0  0  0  0  0  0  0
   44.9546   20.6346    0.6093 H   0  0  0  0  0  0  0  0  0  0  0  0
   45.6111   15.9943    2.4702 H   0  0  0  0  0  0  0  0  0  0  0  0
   44.9917   14.4242    1.8170 H   0  0  0  0  0  0  0  0  0  0  0  0
   48.9147   14.8221    2.0132 H   0  0  0  0  0  0  0  0  0  0  0  0
   40.6684   15.6314    0.8626 H   0  0  0  0  0  0  0  0  0  0  0  0
  1 15  1  0  0  0  0
  2  1  2  0  0  0  0
  3  1  1  0  0  0  0
  4  3  1  0  0  0  0
  5  4  2  0  0  0  0
  5  2  1  0  0  0  0
  6  2  1  0  0  0  0
  7  5  1  0  0  0  0
  8  7  1  0  0  0  0
  8 16  1  0  0  0  0
  8 17  1  0  0  0  0
  9  8  1  0  0  0  0
 10  9  2  0  0  0  0
 11  9  1  0  0  0  0
 11 18  1  0  0  0  0
 12  4  1  0  0  0  0
 13 12  2  0  0  0  0
 14 12  1  0  0  0  0
 14 19  1  0  0  0  0
M  END
$$$$
