L10
 OpenBabel10022215393D

 47 49  0  0  0  0  0  0  0  0999 V2000
    9.1180   19.1040   38.1090 C   0  0  0  0  0  0  0  0  0  0  0  0
    9.1150   17.9390   37.3640 C   0  0  0  0  0  0  0  0  0  0  0  0
    8.1670   17.1260   37.8790 C   0  0  0  0  0  0  0  0  0  0  0  0
    7.5550   17.7830   38.9120 N   0  0  0  0  0  0  0  0  0  0  0  0
    8.1860   19.0160   39.0190 N   0  0  0  0  0  0  0  0  0  0  0  0
    7.8200   15.8580   37.4180 N   0  0  0  0  0  0  0  0  0  0  0  0
    7.4740   15.4920   36.1540 C   0  0  0  0  0  0  0  0  0  0  0  0
    7.5840   16.2550   35.2130 O   0  0  0  0  0  0  0  0  0  0  0  0
    6.9400   14.2480   36.0350 N   0  0  0  0  0  0  0  0  0  0  0  0
    6.7100   13.4690   34.8910 C   0  0  0  0  0  0  0  0  0  0  0  0
    7.7470   13.4730   33.9430 C   0  0  0  0  0  0  0  0  0  0  0  0
    7.6310   12.7440   32.7920 C   0  0  0  0  0  0  0  0  0  0  0  0
    6.4770   12.0130   32.5810 C   0  0  0  0  0  0  0  0  0  0  0  0
    6.3230   11.1270   31.1210 Cl  0  0  0  0  0  0  0  0  0  0  0  0
    5.4400   11.9910   33.4960 C   0  0  0  0  0  0  0  0  0  0  0  0
    5.5560   12.7230   34.6560 C   0  0  0  0  0  0  0  0  0  0  0  0
    6.4900   17.3210   39.7370 C   0  0  0  0  0  0  0  0  0  0  0  0
    5.2990   18.0280   39.8250 C   0  0  0  0  0  0  0  0  0  0  0  0
    4.2600   17.5940   40.6200 C   0  0  0  0  0  0  0  0  0  0  0  0
    4.3870   16.4250   41.3420 C   0  0  0  0  0  0  0  0  0  0  0  0
    5.5550   15.7000   41.2740 C   0  0  0  0  0  0  0  0  0  0  0  0
    6.5940   16.1460   40.4840 C   0  0  0  0  0  0  0  0  0  0  0  0
   10.0300   20.2780   37.8580 C   0  0  0  0  0  0  0  0  0  0  0  0
   10.0470   20.7060   36.3880 C   0  0  0  0  0  0  0  0  0  0  0  0
    9.4780   21.4290   38.7030 C   0  0  0  0  0  0  0  0  0  0  0  0
   11.4480   19.9070   38.2950 C   0  0  0  0  0  0  0  0  0  0  0  0
    9.7669   17.7148   36.5068 H   0  0  0  0  0  0  0  0  0  0  0  0
    7.9549   19.7460   39.7079 H   0  0  0  0  0  0  0  0  0  0  0  0
    6.6604   13.8083   36.9235 H   0  0  0  0  0  0  0  0  0  0  0  0
    8.6557   14.0649   34.1275 H   0  0  0  0  0  0  0  0  0  0  0  0
    8.4410   12.7394   32.0478 H   0  0  0  0  0  0  0  0  0  0  0  0
    4.5353   11.3969   33.2995 H   0  0  0  0  0  0  0  0  0  0  0  0
    4.7411   12.7193   35.3949 H   0  0  0  0  0  0  0  0  0  0  0  0
    5.1814   18.9564   39.2468 H   0  0  0  0  0  0  0  0  0  0  0  0
    3.3304   18.1791   40.6788 H   0  0  0  0  0  0  0  0  0  0  0  0
    3.5560   16.0730   41.9710 H   0  0  0  0  0  0  0  0  0  0  0  0
    5.6596   14.7675   41.8481 H   0  0  0  0  0  0  0  0  0  0  0  0
    7.5257   15.5627   40.4415 H   0  0  0  0  0  0  0  0  0  0  0  0
   10.0906   21.8034   36.3261 H   0  0  0  0  0  0  0  0  0  0  0  0
   10.9287   20.2754   35.8909 H   0  0  0  0  0  0  0  0  0  0  0  0
    9.1339   20.3467   35.8909 H   0  0  0  0  0  0  0  0  0  0  0  0
    9.5933   21.1885   39.7702 H   0  0  0  0  0  0  0  0  0  0  0  0
   10.0318   22.3511   38.4730 H   0  0  0  0  0  0  0  0  0  0  0  0
    8.4122   21.5744   38.4730 H   0  0  0  0  0  0  0  0  0  0  0  0
   11.5013   19.8931   39.3936 H   0  0  0  0  0  0  0  0  0  0  0  0
   11.7039   18.9117   37.9028 H   0  0  0  0  0  0  0  0  0  0  0  0
   12.1586   20.6495   37.9028 H   0  0  0  0  0  0  0  0  0  0  0  0
  2  1  2  0  0  0  0
  2 27  1  0  0  0  0
  3  2  1  0  0  0  0
  4  3  1  0  0  0  0
  5  1  1  0  0  0  0
  5  4  1  0  0  0  0
  5 28  1  0  0  0  0
  6  3  2  3  0  0  0
  7  6  1  0  0  0  0
  8  7  2  0  0  0  0
  9  7  1  0  0  0  0
  9 29  1  0  0  0  0
 10  9  1  0  0  0  0
 11 10  2  0  0  0  0
 11 30  1  0  0  0  0
 12 11  1  0  0  0  0
 12 31  1  0  0  0  0
 13 12  2  0  0  0  0
 14 13  1  0  0  0  0
 15 13  1  0  0  0  0
 15 32  1  0  0  0  0
 16 15  2  0  0  0  0
 16 10  1  0  0  0  0
 16 33  1  0  0  0  0
 17  4  1  0  0  0  0
 18 17  2  0  0  0  0
 18 34  1  0  0  0  0
 19 18  1  0  0  0  0
 19 35  1  0  0  0  0
 20 19  2  0  0  0  0
 20 36  1  0  0  0  0
 21 20  1  0  0  0  0
 21 37  1  0  0  0  0
 22 21  2  0  0  0  0
 22 17  1  0  0  0  0
 22 38  1  0  0  0  0
 23  1  1  0  0  0  0
 24 23  1  0  0  0  0
 24 39  1  0  0  0  0
 24 40  1  0  0  0  0
 24 41  1  0  0  0  0
 25 23  1  0  0  0  0
 25 42  1  0  0  0  0
 25 43  1  0  0  0  0
 25 44  1  0  0  0  0
 26 23  1  0  0  0  0
 26 45  1  0  0  0  0
 26 46  1  0  0  0  0
 26 47  1  0  0  0  0
M  END
$$$$
