1MO
 OpenBabel09282214133D

 50 53  0  0  0  0  0  0  0  0999 V2000
   -5.2580   -9.9090   -0.9160 N   0  0  0  0  0  0  0  0  0  0  0  0
   -3.7430   -8.4750   -1.8210 O   0  0  0  0  0  0  0  0  0  0  0  0
   -6.6720   -9.9130   -3.3290 O   0  0  0  0  0  0  0  0  0  0  0  0
   -6.4330  -10.7040   -1.0870 C   0  0  1  0  0  0  0  0  0  0  0  0
   -4.5700  -10.0070    0.3740 C   0  0  0  0  0  0  0  0  0  0  0  0
   -4.7880   -9.1100   -1.9500 C   0  0  0  0  0  0  0  0  0  0  0  0
   -5.5920   -9.0080   -3.3060 C   0  0  2  0  0  0  0  0  0  0  0  0
   -7.3950  -10.0670   -2.1500 C   0  0  2  0  0  0  0  0  0  0  0  0
   -6.0310  -12.1520   -1.3150 C   0  0  0  0  0  0  0  0  0  0  0  0
   -6.6970  -13.1660   -0.5770 C   0  0  0  0  0  0  0  0  0  0  0  0
   -6.4040  -14.5310   -0.8030 C   0  0  0  0  0  0  0  0  0  0  0  0
   -5.4510  -14.8850   -1.7540 C   0  0  0  0  0  0  0  0  0  0  0  0
   -5.1610  -16.5590   -2.1090 Cl  0  0  0  0  0  0  0  0  0  0  0  0
   -4.7830  -13.8510   -2.4660 C   0  0  0  0  0  0  0  0  0  0  0  0
   -5.0620  -12.5110   -2.2530 C   0  0  0  0  0  0  0  0  0  0  0  0
   -8.5710  -10.9230   -2.4490 C   0  0  0  0  0  0  0  0  0  0  0  0
   -8.7100  -11.5700   -3.7010 C   0  0  0  0  0  0  0  0  0  0  0  0
   -9.8820  -12.3060   -3.9710 C   0  0  0  0  0  0  0  0  0  0  0  0
  -10.9240  -12.4130   -3.0080 C   0  0  0  0  0  0  0  0  0  0  0  0
  -12.3630  -13.2480   -3.3500 Cl  0  0  0  0  0  0  0  0  0  0  0  0
  -10.7570  -11.7710   -1.7660 C   0  0  0  0  0  0  0  0  0  0  0  0
   -9.5980  -11.0370   -1.4790 C   0  0  0  0  0  0  0  0  0  0  0  0
   -6.0190   -7.5520   -3.5590 C   0  0  0  0  0  0  0  0  0  0  0  0
   -5.3280   -6.8320   -4.7120 C   0  0  0  0  0  0  0  0  0  0  0  0
   -3.9880   -7.0600   -5.0820 C   0  0  0  0  0  0  0  0  0  0  0  0
   -3.4280   -6.3570   -6.1730 C   0  0  0  0  0  0  0  0  0  0  0  0
   -4.2080   -5.4380   -6.8800 C   0  0  0  0  0  0  0  0  0  0  0  0
   -5.5320   -5.2190   -6.5130 C   0  0  0  0  0  0  0  0  0  0  0  0
   -6.0800   -5.9040   -5.4470 C   0  0  0  0  0  0  0  0  0  0  0  0
   -7.0446  -10.7166   -0.1728 H   0  0  0  0  0  0  0  0  0  0  0  0
   -5.3017   -9.9028    1.1887 H   0  0  0  0  0  0  0  0  0  0  0  0
   -4.0725  -10.9851    0.4509 H   0  0  0  0  0  0  0  0  0  0  0  0
   -3.8192   -9.2067    0.4509 H   0  0  0  0  0  0  0  0  0  0  0  0
   -4.9352   -9.3023   -4.1378 H   0  0  0  0  0  0  0  0  0  0  0  0
   -7.7673   -9.1146   -1.7447 H   0  0  0  0  0  0  0  0  0  0  0  0
   -7.4476  -12.8873    0.1773 H   0  0  0  0  0  0  0  0  0  0  0  0
   -6.9273  -15.3102   -0.2294 H   0  0  0  0  0  0  0  0  0  0  0  0
   -4.0201  -14.1241   -3.2099 H   0  0  0  0  0  0  0  0  0  0  0  0
   -4.5241  -11.7360   -2.8187 H   0  0  0  0  0  0  0  0  0  0  0  0
   -7.9121  -11.4991   -4.4549 H   0  0  0  0  0  0  0  0  0  0  0  0
   -9.9928  -12.8067   -4.9441 H   0  0  0  0  0  0  0  0  0  0  0  0
  -11.5501  -11.8469   -1.0076 H   0  0  0  0  0  0  0  0  0  0  0  0
   -9.4853  -10.5488   -0.4997 H   0  0  0  0  0  0  0  0  0  0  0  0
   -7.0997   -7.5513   -3.7640 H   0  0  0  0  0  0  0  0  0  0  0  0
   -5.7259   -7.0006   -2.6534 H   0  0  0  0  0  0  0  0  0  0  0  0
   -3.3780   -7.7844   -4.5224 H   0  0  0  0  0  0  0  0  0  0  0  0
   -2.3820   -6.5327   -6.4644 H   0  0  0  0  0  0  0  0  0  0  0  0
   -3.7746   -4.8871   -7.7277 H   0  0  0  0  0  0  0  0  0  0  0  0
   -6.1442   -4.4976   -7.0741 H   0  0  0  0  0  0  0  0  0  0  0  0
   -7.1278   -5.7182   -5.1684 H   0  0  0  0  0  0  0  0  0  0  0  0
  4  1  1  0  0  0  0
  4 30  1  1  0  0  0
  5  1  1  0  0  0  0
  5 31  1  0  0  0  0
  5 32  1  0  0  0  0
  5 33  1  0  0  0  0
  6  2  2  0  0  0  0
  6  1  1  0  0  0  0
  7  3  1  0  0  0  0
  7  6  1  0  0  0  0
  7 34  1  6  0  0  0
  8  4  1  0  0  0  0
  8  3  1  0  0  0  0
  8 35  1  1  0  0  0
  9  4  1  0  0  0  0
 10  9  2  0  0  0  0
 10 36  1  0  0  0  0
 11 10  1  0  0  0  0
 11 37  1  0  0  0  0
 12 11  2  0  0  0  0
 13 12  1  0  0  0  0
 14 12  1  0  0  0  0
 14 38  1  0  0  0  0
 15  9  1  0  0  0  0
 15 14  2  0  0  0  0
 15 39  1  0  0  0  0
 16  8  1  0  0  0  0
 17 16  2  0  0  0  0
 17 40  1  0  0  0  0
 18 17  1  0  0  0  0
 18 41  1  0  0  0  0
 19 18  2  0  0  0  0
 20 19  1  0  0  0  0
 21 19  1  0  0  0  0
 21 42  1  0  0  0  0
 22 21  2  0  0  0  0
 22 16  1  0  0  0  0
 22 43  1  0  0  0  0
 23  7  1  0  0  0  0
 23 44  1  0  0  0  0
 23 45  1  0  0  0  0
 24 23  1  0  0  0  0
 25 24  2  0  0  0  0
 25 46  1  0  0  0  0
 26 25  1  0  0  0  0
 26 47  1  0  0  0  0
 27 26  2  0  0  0  0
 27 48  1  0  0  0  0
 28 27  1  0  0  0  0
 28 49  1  0  0  0  0
 29 28  2  0  0  0  0
 29 24  1  0  0  0  0
 29 50  1  0  0  0  0
M  END
$$$$
