5M9
 OpenBabel10032210023D

 47 50  0  0  0  0  0  0  0  0999 V2000
   92.6380  -10.7810   11.5230 C   0  0  0  0  0  0  0  0  0  0  0  0
   92.3700   -9.8580   12.7140 C   0  0  0  0  0  0  0  0  0  0  0  0
   93.1950   -8.9090   13.1620 N   0  0  0  0  0  0  0  0  0  0  0  0
   92.6520   -8.2960   14.2410 C   0  0  0  0  0  0  0  0  0  0  0  0
   93.1160   -7.1530   15.0860 C   0  0  0  0  0  0  0  0  0  0  0  0
   91.4650   -8.9000   14.4420 N   0  0  0  0  0  0  0  0  0  0  0  0
   92.2670   -6.7380   16.1750 C   0  0  0  0  0  0  0  0  0  0  0  0
   94.4570   -6.4330   14.8700 C   0  0  0  0  0  0  0  0  0  0  0  0
   91.0510   -7.3800   16.4080 C   0  0  0  0  0  0  0  0  0  0  0  0
   90.0950   -6.8300   17.7500 Cl  0  0  0  0  0  0  0  0  0  0  0  0
   90.6090   -8.4910   15.5620 C   0  0  0  0  0  0  0  0  0  0  0  0
   89.2660   -9.2470   15.7490 C   0  0  0  0  0  0  0  0  0  0  0  0
   91.2770   -9.8790   13.5140 N   0  0  0  0  0  0  0  0  0  0  0  0
   94.0730  -11.3370   11.7390 C   0  0  0  0  0  0  0  0  0  0  0  0
   94.3980  -12.1390   10.5070 C   0  0  0  0  0  0  0  0  0  0  0  0
   93.5240  -12.5240    9.5980 N   0  0  0  0  0  0  0  0  0  0  0  0
   94.2130  -13.1830    8.6470 C   0  0  0  0  0  0  0  0  0  0  0  0
   95.4630  -13.2050    8.9720 N   0  0  0  0  0  0  0  0  0  0  0  0
   95.5990  -12.5580   10.1510 N   0  0  0  0  0  0  0  0  0  0  0  0
   96.8510  -12.3470   10.8770 C   0  0  0  0  0  0  0  0  0  0  0  0
   93.6640  -13.8020    7.4260 N   0  0  0  0  0  0  0  0  0  0  0  0
   92.3230  -13.9620    6.9740 C   0  0  0  0  0  0  0  0  0  0  0  0
   92.4370  -14.6920    5.6760 C   0  0  0  0  0  0  0  0  0  0  0  0
   93.7990  -14.4510    5.1910 C   0  0  0  0  0  0  0  0  0  0  0  0
   94.5860  -14.0170    6.3930 C   0  0  0  0  0  0  0  0  0  0  0  0
   91.9070  -11.6027   11.5021 H   0  0  0  0  0  0  0  0  0  0  0  0
   92.5487  -10.2463   10.5658 H   0  0  0  0  0  0  0  0  0  0  0  0
   92.5806   -5.9092   16.8267 H   0  0  0  0  0  0  0  0  0  0  0  0
   94.9052   -6.1923   15.8453 H   0  0  0  0  0  0  0  0  0  0  0  0
   95.1375   -7.0870   14.3051 H   0  0  0  0  0  0  0  0  0  0  0  0
   94.2878   -5.5044   14.3051 H   0  0  0  0  0  0  0  0  0  0  0  0
   89.0577   -9.3643   16.8227 H   0  0  0  0  0  0  0  0  0  0  0  0
   88.4538   -8.6735   15.2784 H   0  0  0  0  0  0  0  0  0  0  0  0
   89.3349  -10.2389   15.2784 H   0  0  0  0  0  0  0  0  0  0  0  0
   94.7893  -10.5105   11.8568 H   0  0  0  0  0  0  0  0  0  0  0  0
   94.1333  -11.9534   12.6481 H   0  0  0  0  0  0  0  0  0  0  0  0
   96.6572  -12.3797   11.9593 H   0  0  0  0  0  0  0  0  0  0  0  0
   97.5680  -13.1370   10.6089 H   0  0  0  0  0  0  0  0  0  0  0  0
   97.2694  -11.3657   10.6089 H   0  0  0  0  0  0  0  0  0  0  0  0
   91.7385  -14.5491    7.6977 H   0  0  0  0  0  0  0  0  0  0  0  0
   91.8071  -12.9970    6.8614 H   0  0  0  0  0  0  0  0  0  0  0  0
   92.2710  -15.7687    5.8280 H   0  0  0  0  0  0  0  0  0  0  0  0
   91.6856  -14.3434    4.9521 H   0  0  0  0  0  0  0  0  0  0  0  0
   94.2238  -15.3725    4.7664 H   0  0  0  0  0  0  0  0  0  0  0  0
   93.8189  -13.6910    4.3960 H   0  0  0  0  0  0  0  0  0  0  0  0
   95.3008  -14.8020    6.6810 H   0  0  0  0  0  0  0  0  0  0  0  0
   95.1593  -13.1027    6.1797 H   0  0  0  0  0  0  0  0  0  0  0  0
  1 26  1  0  0  0  0
  1 27  1  0  0  0  0
  2  1  1  0  0  0  0
  3  2  1  0  0  0  0
  4  3  2  0  0  0  0
  5  4  1  0  0  0  0
  6  4  1  0  0  0  0
  7  5  2  0  0  0  0
  7 28  1  0  0  0  0
  8  5  1  0  0  0  0
  8 29  1  0  0  0  0
  8 30  1  0  0  0  0
  8 31  1  0  0  0  0
  9  7  1  0  0  0  0
 10  9  1  0  0  0  0
 11  6  1  0  0  0  0
 11  9  2  0  0  0  0
 12 11  1  0  0  0  0
 12 32  1  0  0  0  0
 12 33  1  0  0  0  0
 12 34  1  0  0  0  0
 13  6  1  0  0  0  0
 13  2  2  0  0  0  0
 14  1  1  0  0  0  0
 14 35  1  0  0  0  0
 14 36  1  0  0  0  0
 15 14  1  0  0  0  0
 16 15  2  0  0  0  0
 17 16  1  0  0  0  0
 18 17  2  0  0  0  0
 19 18  1  0  0  0  0
 19 15  1  0  0  0  0
 20 19  1  0  0  0  0
 20 37  1  0  0  0  0
 20 38  1  0  0  0  0
 20 39  1  0  0  0  0
 21 17  1  0  0  0  0
 22 21  1  0  0  0  0
 22 40  1  0  0  0  0
 22 41  1  0  0  0  0
 23 22  1  0  0  0  0
 23 42  1  0  0  0  0
 23 43  1  0  0  0  0
 24 23  1  0  0  0  0
 24 44  1  0  0  0  0
 24 45  1  0  0  0  0
 25 24  1  0  0  0  0
 25 21  1  0  0  0  0
 25 46  1  0  0  0  0
 25 47  1  0  0  0  0
M  END
$$$$
