0ZI
 OpenBabel11082214563D

 74 76  0  0  0  0  0  0  0  0999 V2000
   15.9220  -12.9880   19.3000 C   0  0  2  0  0  0  0  0  0  0  0  0
   14.7300  -12.6150   20.1850 C   0  0  0  0  0  0  0  0  0  0  0  0
   14.4330  -11.4420   20.4760 O   0  0  0  0  0  0  0  0  0  0  0  0
   13.7170  -13.6310   20.3340 N   0  0  0  0  0  0  0  0  0  0  0  0
   12.6160  -13.1530   21.3270 C   0  0  0  0  0  0  0  0  0  0  0  0
   14.1860  -15.1210   20.2350 C   0  0  0  0  0  0  0  0  0  0  0  0
   11.3430  -13.9540   21.1000 C   0  0  0  0  0  0  0  0  0  0  0  0
   11.6980  -15.5200   20.9920 C   0  0  2  0  0  0  0  0  0  0  0  0
   12.8850  -15.9080   19.9450 C   0  0  0  0  0  0  0  0  0  0  0  0
   10.4300  -16.0560   20.5880 C   0  0  0  0  0  0  0  0  0  0  0  0
   10.4750  -17.0610   19.3990 C   0  0  0  0  0  0  0  0  0  0  0  0
   17.1860  -13.0310   20.1280 C   0  0  0  0  0  0  0  0  0  0  0  0
   18.7170  -12.9250   20.2100 C   0  0  0  0  0  0  0  0  0  0  0  0
   19.2280  -14.2490   20.2230 C   0  0  0  0  0  0  0  0  0  0  0  0
   19.9610  -14.4310   21.5110 N   0  0  0  0  0  0  0  0  0  0  0  0
   19.7080  -15.0450   22.6330 C   0  0  0  0  0  0  0  0  0  0  0  0
   18.5540  -15.7680   22.7080 N   0  3  0  0  0  0  0  0  0  0  0  0
   20.5320  -14.9550   23.6030 N   0  0  0  0  0  0  0  0  0  0  0  0
   16.0700  -11.9810   18.2590 N   0  0  0  0  0  0  0  0  0  0  0  0
   16.5200  -12.4630   16.6180 S   0  0  0  0  0  0  0  0  0  0  0  0
   17.2840  -11.3030   16.0900 O   0  0  0  0  0  0  0  0  0  0  0  0
   15.1440  -12.5330   15.9970 O   0  0  0  0  0  0  0  0  0  0  0  0
   17.7720  -13.8550   16.6680 C   0  0  0  0  0  0  0  0  0  0  0  0
   19.1430  -13.5250   16.4920 C   0  0  0  0  0  0  0  0  0  0  0  0
   20.0990  -14.5040   16.5510 C   0  0  0  0  0  0  0  0  0  0  0  0
   19.7290  -15.8360   16.8040 C   0  0  0  0  0  0  0  0  0  0  0  0
   18.3930  -16.1850   16.9760 C   0  0  0  0  0  0  0  0  0  0  0  0
   18.0210  -17.4780   17.2090 C   0  0  0  0  0  0  0  0  0  0  0  0
   17.3870  -15.1560   16.9050 C   0  0  0  0  0  0  0  0  0  0  0  0
   16.6940  -17.8130   17.4210 C   0  0  0  0  0  0  0  0  0  0  0  0
   15.7210  -16.7960   17.3120 C   0  0  0  0  0  0  0  0  0  0  0  0
   16.0680  -15.4790   17.0900 C   0  0  0  0  0  0  0  0  0  0  0  0
   19.0030  -18.4700   17.3160 N   0  0  0  0  0  0  0  0  0  0  0  0
   19.7420  -18.7950   18.5530 C   0  0  0  0  0  0  0  0  0  0  0  0
   18.6510  -19.8380   16.5250 C   0  0  0  0  0  0  0  0  0  0  0  0
   15.7484  -13.9774   18.8518 H   0  0  0  0  0  0  0  0  0  0  0  0
   12.9640  -13.3031   22.3597 H   0  0  0  0  0  0  0  0  0  0  0  0
   12.4110  -12.0853   21.1596 H   0  0  0  0  0  0  0  0  0  0  0  0
   14.9102  -15.2489   19.4170 H   0  0  0  0  0  0  0  0  0  0  0  0
   14.6930  -15.4655   21.1484 H   0  0  0  0  0  0  0  0  0  0  0  0
   10.6546  -13.7926   21.9426 H   0  0  0  0  0  0  0  0  0  0  0  0
   10.8671  -13.6235   20.1649 H   0  0  0  0  0  0  0  0  0  0  0  0
   12.1103  -15.9162   21.9317 H   0  0  0  0  0  0  0  0  0  0  0  0
   13.0943  -16.9848   20.0269 H   0  0  0  0  0  0  0  0  0  0  0  0
   12.5461  -15.6475   18.9314 H   0  0  0  0  0  0  0  0  0  0  0  0
    9.9899  -16.5738   21.4530 H   0  0  0  0  0  0  0  0  0  0  0  0
    9.8378  -15.1983   20.2362 H   0  0  0  0  0  0  0  0  0  0  0  0
   10.5210  -18.0885   19.7890 H   0  0  0  0  0  0  0  0  0  0  0  0
    9.5706  -16.9423   18.7841 H   0  0  0  0  0  0  0  0  0  0  0  0
   11.3651  -16.8620   18.7841 H   0  0  0  0  0  0  0  0  0  0  0  0
   16.9246  -12.2655   20.8734 H   0  0  0  0  0  0  0  0  0  0  0  0
   17.2904  -14.0979   19.8816 H   0  0  0  0  0  0  0  0  0  0  0  0
   19.1046  -12.3798   19.3368 H   0  0  0  0  0  0  0  0  0  0  0  0
   19.0233  -12.3788   21.1143 H   0  0  0  0  0  0  0  0  0  0  0  0
   18.4016  -14.9718   20.1551 H   0  0  0  0  0  0  0  0  0  0  0  0
   19.8987  -14.4153   19.3671 H   0  0  0  0  0  0  0  0  0  0  0  0
   20.8787  -13.9634   21.5138 H   0  0  0  0  0  0  0  0  0  0  0  0
   18.3154  -16.2687   23.5759 H   0  0  0  0  0  0  0  0  0  0  0  0
   17.9210  -15.8134   21.8967 H   0  0  0  0  0  0  0  0  0  0  0  0
   20.3365  -15.4383   24.4913 H   0  0  0  0  0  0  0  0  0  0  0  0
   21.3927  -14.3991   23.4977 H   0  0  0  0  0  0  0  0  0  0  0  0
   15.1661  -11.4923   18.1878 H   0  0  0  0  0  0  0  0  0  0  0  0
   19.4370  -12.4811   16.3080 H   0  0  0  0  0  0  0  0  0  0  0  0
   21.1579  -14.2473   16.4001 H   0  0  0  0  0  0  0  0  0  0  0  0
   20.5055  -16.6126   16.8669 H   0  0  0  0  0  0  0  0  0  0  0  0
   16.4055  -18.8453   17.6680 H   0  0  0  0  0  0  0  0  0  0  0  0
   14.6575  -17.0605   17.4066 H   0  0  0  0  0  0  0  0  0  0  0  0
   15.2947  -14.6972   17.0618 H   0  0  0  0  0  0  0  0  0  0  0  0
   19.1304  -18.5260   19.4269 H   0  0  0  0  0  0  0  0  0  0  0  0
   19.9614  -19.8726   18.5767 H   0  0  0  0  0  0  0  0  0  0  0  0
   20.6845  -18.2283   18.5767 H   0  0  0  0  0  0  0  0  0  0  0  0
   18.4450  -20.6386   17.2507 H   0  0  0  0  0  0  0  0  0  0  0  0
   17.7646  -19.6787   15.8934 H   0  0  0  0  0  0  0  0  0  0  0  0
   19.5042  -20.1263   15.8934 H   0  0  0  0  0  0  0  0  0  0  0  0
  1 36  1  6  0  0  0
  2  1  1  0  0  0  0
  3  2  2  0  0  0  0
  4  2  1  0  0  0  0
  5  4  1  0  0  0  0
  5 37  1  0  0  0  0
  5 38  1  0  0  0  0
  6  4  1  0  0  0  0
  6 39  1  0  0  0  0
  6 40  1  0  0  0  0
  7  5  1  0  0  0  0
  7 41  1  0  0  0  0
  7 42  1  0  0  0  0
  8  7  1  0  0  0  0
  8 43  1  1  0  0  0
  9  8  1  0  0  0  0
  9  6  1  0  0  0  0
  9 44  1  0  0  0  0
  9 45  1  0  0  0  0
 10  8  1  0  0  0  0
 10 46  1  0  0  0  0
 10 47  1  0  0  0  0
 11 10  1  0  0  0  0
 11 48  1  0  0  0  0
 11 49  1  0  0  0  0
 11 50  1  0  0  0  0
 12  1  1  0  0  0  0
 12 51  1  0  0  0  0
 12 52  1  0  0  0  0
 13 12  1  0  0  0  0
 13 53  1  0  0  0  0
 13 54  1  0  0  0  0
 14 13  1  0  0  0  0
 14 55  1  0  0  0  0
 14 56  1  0  0  0  0
 15 14  1  0  0  0  0
 15 57  1  0  0  0  0
 16 15  1  0  0  0  0
 17 16  2  0  0  0  0
 17 58  1  0  0  0  0
 17 59  1  0  0  0  0
 18 16  1  0  0  0  0
 18 60  1  0  0  0  0
 18 61  1  0  0  0  0
 19  1  1  0  0  0  0
 19 62  1  0  0  0  0
 20 19  1  0  0  0  0
 21 20  2  0  0  0  0
 22 20  2  0  0  0  0
 23 20  1  0  0  0  0
 24 23  2  0  0  0  0
 24 63  1  0  0  0  0
 25 24  1  0  0  0  0
 25 64  1  0  0  0  0
 26 25  2  0  0  0  0
 26 65  1  0  0  0  0
 27 26  1  0  0  0  0
 28 27  1  0  0  0  0
 29 27  2  0  0  0  0
 29 23  1  0  0  0  0
 30 28  2  0  0  0  0
 30 66  1  0  0  0  0
 31 30  1  0  0  0  0
 31 67  1  0  0  0  0
 32 31  2  0  0  0  0
 32 29  1  0  0  0  0
 32 68  1  0  0  0  0
 33 28  1  0  0  0  0
 34 33  1  0  0  0  0
 34 69  1  0  0  0  0
 34 70  1  0  0  0  0
 34 71  1  0  0  0  0
 35 33  1  0  0  0  0
 35 72  1  0  0  0  0
 35 73  1  0  0  0  0
 35 74  1  0  0  0  0
M  CHG  1  17   1
M  END
$$$$
