PU3
 OpenBabel09092213023D

 52 54  0  0  0  0  0  0  0  0999 V2000
    6.2100    4.1790   22.6760 N   0  0  0  0  0  0  0  0  0  0  0  0
    5.0900    5.2450   24.3540 N   0  0  0  0  0  0  0  0  0  0  0  0
    9.0360    6.0840   24.1950 N   0  0  0  0  0  0  0  0  0  0  0  0
    6.9670    6.4780   25.2980 N   0  0  0  0  0  0  0  0  0  0  0  0
    9.2280    4.7210   22.3000 N   0  0  0  0  0  0  0  0  0  0  0  0
    5.0470    4.4040   23.3000 C   0  0  0  0  0  0  0  0  0  0  0  0
    7.0630    4.9500   23.3870 C   0  0  0  0  0  0  0  0  0  0  0  0
    6.3410    5.6460   24.4460 C   0  0  0  0  0  0  0  0  0  0  0  0
    8.4790    5.2700   23.2760 C   0  0  0  0  0  0  0  0  0  0  0  0
    8.2990    6.6750   25.1700 C   0  0  0  0  0  0  0  0  0  0  0  0
    3.7850    3.6740   22.9140 C   0  0  0  0  0  0  0  0  0  0  0  0
    3.1260    4.0490   21.5980 C   0  0  0  0  0  0  0  0  0  0  0  0
    2.8270    5.3950   21.2890 C   0  0  0  0  0  0  0  0  0  0  0  0
    2.1630    5.6870   20.0820 C   0  0  0  0  0  0  0  0  0  0  0  0
    1.8050    4.6240   19.1560 C   0  0  0  0  0  0  0  0  0  0  0  0
    2.1340    3.2570   19.4970 C   0  0  0  0  0  0  0  0  0  0  0  0
    2.7740    3.0260   20.7330 C   0  0  0  0  0  0  0  0  0  0  0  0
    1.7370    6.9350   19.6690 O   0  0  0  0  0  0  0  0  0  0  0  0
    2.6460    7.9380   19.3110 C   0  0  0  0  0  0  0  0  0  0  0  0
    1.1890    4.9340   17.9930 O   0  0  0  0  0  0  0  0  0  0  0  0
    2.0240    5.0320   16.8230 C   0  0  0  0  0  0  0  0  0  0  0  0
    1.8800    2.2750   18.5630 O   0  0  0  0  0  0  0  0  0  0  0  0
    3.0110    1.6340   17.9230 C   0  0  0  0  0  0  0  0  0  0  0  0
    4.0090    5.7480   25.2020 C   0  0  0  0  0  0  0  0  0  0  0  0
    3.5690    7.0700   24.5760 C   0  0  0  0  0  0  0  0  0  0  0  0
    3.0650    8.1000   25.5710 C   0  0  0  0  0  0  0  0  0  0  0  0
    3.3640    9.4720   24.9550 C   0  0  0  0  0  0  0  0  0  0  0  0
   10.2292    4.9519   22.2275 H   0  0  0  0  0  0  0  0  0  0  0  0
    8.7995    4.0703   21.6263 H   0  0  0  0  0  0  0  0  0  0  0  0
    8.8054    7.3407   25.8845 H   0  0  0  0  0  0  0  0  0  0  0  0
    4.0273    2.6021   22.8662 H   0  0  0  0  0  0  0  0  0  0  0  0
    3.0524    3.9603   23.6829 H   0  0  0  0  0  0  0  0  0  0  0  0
    3.1086    6.2025   21.9808 H   0  0  0  0  0  0  0  0  0  0  0  0
    3.0031    1.9897   21.0219 H   0  0  0  0  0  0  0  0  0  0  0  0
    3.0621    8.3971   20.2199 H   0  0  0  0  0  0  0  0  0  0  0  0
    3.4605    7.4993   18.7159 H   0  0  0  0  0  0  0  0  0  0  0  0
    2.1295    8.7056   18.7159 H   0  0  0  0  0  0  0  0  0  0  0  0
    3.0730    5.1551   17.1304 H   0  0  0  0  0  0  0  0  0  0  0  0
    1.9230    4.1158   16.2226 H   0  0  0  0  0  0  0  0  0  0  0  0
    1.7136    5.8999   16.2226 H   0  0  0  0  0  0  0  0  0  0  0  0
    3.6957    1.2459   18.6915 H   0  0  0  0  0  0  0  0  0  0  0  0
    2.6551    0.8033   17.2958 H   0  0  0  0  0  0  0  0  0  0  0  0
    3.5408    2.3661   17.2958 H   0  0  0  0  0  0  0  0  0  0  0  0
    3.1718    5.0347   25.2185 H   0  0  0  0  0  0  0  0  0  0  0  0
    4.3403    5.8833   26.2422 H   0  0  0  0  0  0  0  0  0  0  0  0
    4.4288    7.5003   24.0417 H   0  0  0  0  0  0  0  0  0  0  0  0
    2.7237    6.8361   23.9121 H   0  0  0  0  0  0  0  0  0  0  0  0
    1.9829    7.9804   25.7285 H   0  0  0  0  0  0  0  0  0  0  0  0
    3.5540    7.9848   26.5496 H   0  0  0  0  0  0  0  0  0  0  0  0
    3.5242   10.2071   25.7574 H   0  0  0  0  0  0  0  0  0  0  0  0
    4.2687    9.4053   24.3328 H   0  0  0  0  0  0  0  0  0  0  0  0
    2.5136    9.7878   24.3328 H   0  0  0  0  0  0  0  0  0  0  0  0
  5 28  1  0  0  0  0
  5 29  1  0  0  0  0
  6  2  1  0  0  0  0
  6  1  2  0  0  0  0
  7  1  1  0  0  0  0
  8  2  1  0  0  0  0
  8  7  2  0  0  0  0
  8  4  1  0  0  0  0
  9  7  1  0  0  0  0
  9  5  1  0  0  0  0
  9  3  2  0  0  0  0
 10  4  2  0  0  0  0
 10  3  1  0  0  0  0
 10 30  1  0  0  0  0
 11  6  1  0  0  0  0
 11 31  1  0  0  0  0
 11 32  1  0  0  0  0
 12 11  1  0  0  0  0
 13 12  2  0  0  0  0
 13 33  1  0  0  0  0
 14 13  1  0  0  0  0
 15 14  2  0  0  0  0
 16 15  1  0  0  0  0
 17 16  2  0  0  0  0
 17 12  1  0  0  0  0
 17 34  1  0  0  0  0
 18 14  1  0  0  0  0
 19 18  1  0  0  0  0
 19 35  1  0  0  0  0
 19 36  1  0  0  0  0
 19 37  1  0  0  0  0
 20 15  1  0  0  0  0
 21 20  1  0  0  0  0
 21 38  1  0  0  0  0
 21 39  1  0  0  0  0
 21 40  1  0  0  0  0
 22 16  1  0  0  0  0
 23 22  1  0  0  0  0
 23 41  1  0  0  0  0
 23 42  1  0  0  0  0
 23 43  1  0  0  0  0
 24  2  1  0  0  0  0
 24 44  1  0  0  0  0
 24 45  1  0  0  0  0
 25 24  1  0  0  0  0
 25 46  1  0  0  0  0
 25 47  1  0  0  0  0
 26 25  1  0  0  0  0
 26 48  1  0  0  0  0
 26 49  1  0  0  0  0
 27 26  1  0  0  0  0
 27 50  1  0  0  0  0
 27 51  1  0  0  0  0
 27 52  1  0  0  0  0
M  END
$$$$
