BZT
 OpenBabel11082210453D

 73 78  0  0  0  0  0  0  0  0999 V2000
   11.5570  -11.8350   23.2320 C   0  0  0  0  0  0  0  0  0  0  0  0
   10.8180  -11.3370   24.2640 O   0  0  0  0  0  0  0  0  0  0  0  0
   12.7150  -11.1010   19.2730 S   0  0  0  0  0  0  0  0  0  0  0  0
   11.6700  -11.1720   21.9390 C   0  0  0  0  0  0  0  0  0  0  0  0
   12.4410  -11.6970   20.8600 C   0  0  0  0  0  0  0  0  0  0  0  0
   13.1430  -12.9360   21.0320 C   0  0  0  0  0  0  0  0  0  0  0  0
   13.0450  -13.6000   22.3000 C   0  0  0  0  0  0  0  0  0  0  0  0
   12.2550  -13.0580   23.3930 C   0  0  0  0  0  0  0  0  0  0  0  0
   13.6860  -12.3490   18.7920 C   0  0  0  0  0  0  0  0  0  0  0  0
   13.8430  -13.3180   19.8540 C   0  0  0  0  0  0  0  0  0  0  0  0
   14.2650  -12.4000   17.4000 C   0  0  0  0  0  0  0  0  0  0  0  0
   15.6770  -12.1620   17.0770 C   0  0  0  0  0  0  0  0  0  0  0  0
   16.1480  -12.2530   15.7530 C   0  0  0  0  0  0  0  0  0  0  0  0
   15.2770  -12.5780   14.6840 C   0  0  0  0  0  0  0  0  0  0  0  0
   13.8680  -12.8080   15.0110 C   0  0  0  0  0  0  0  0  0  0  0  0
   13.3490  -12.7270   16.3470 C   0  0  0  0  0  0  0  0  0  0  0  0
   15.8900  -12.6460   13.3880 O   0  0  0  0  0  0  0  0  0  0  0  0
   15.6590  -13.8750   12.5830 C   0  0  0  0  0  0  0  0  0  0  0  0
   16.9400  -14.7040   12.2560 C   0  0  0  0  0  0  0  0  0  0  0  0
   17.0300  -16.0630   12.9210 N   0  0  0  0  0  0  0  0  0  0  0  0
   16.5310  -16.1110   14.2930 C   0  0  0  0  0  0  0  0  0  0  0  0
   16.7930  -17.6120   14.6270 C   0  0  0  0  0  0  0  0  0  0  0  0
   18.0810  -17.8930   13.8000 C   0  0  0  0  0  0  0  0  0  0  0  0
   18.3990  -16.5630   13.1050 C   0  0  0  0  0  0  0  0  0  0  0  0
   14.5120  -14.5920   19.5010 C   0  0  0  0  0  0  0  0  0  0  0  0
   15.9040  -15.0140   20.2440 C   0  0  0  0  0  0  0  0  0  0  0  0
   16.0110  -16.1860   21.0520 C   0  0  0  0  0  0  0  0  0  0  0  0
   17.2340  -16.5190   21.6590 C   0  0  0  0  0  0  0  0  0  0  0  0
   18.4400  -15.7640   21.5260 C   0  0  0  0  0  0  0  0  0  0  0  0
   18.3330  -14.6060   20.7160 C   0  0  0  0  0  0  0  0  0  0  0  0
   17.0830  -14.2230   20.0810 C   0  0  0  0  0  0  0  0  0  0  0  0
   19.6780  -13.4460   20.3430 Br  0  0  0  0  0  0  0  0  0  0  0  0
   19.7010  -16.2640   22.2530 C   0  0  0  0  0  0  0  0  0  0  0  0
   19.8830  -15.7590   23.6060 N   0  0  0  0  0  0  0  0  0  0  0  0
   20.9390  -14.6750   23.8460 C   0  0  0  0  0  0  0  0  0  0  0  0
   20.7540  -14.2220   25.3470 C   0  0  0  0  0  0  0  0  0  0  0  0
   20.3110  -15.5840   25.9210 C   0  0  0  0  0  0  0  0  0  0  0  0
   20.2790  -16.6340   24.7660 C   0  0  0  0  0  0  0  0  0  0  0  0
   10.7742  -11.8270   25.1231 H   0  0  0  0  0  0  0  0  0  0  0  0
   11.1357  -10.2224   21.7882 H   0  0  0  0  0  0  0  0  0  0  0  0
   13.5837  -14.5474   22.4494 H   0  0  0  0  0  0  0  0  0  0  0  0
   12.1986  -13.5992   24.3490 H   0  0  0  0  0  0  0  0  0  0  0  0
   16.3801  -11.9079   17.8839 H   0  0  0  0  0  0  0  0  0  0  0  0
   17.2122  -12.0683   15.5449 H   0  0  0  0  0  0  0  0  0  0  0  0
   13.1742  -13.0546   14.1938 H   0  0  0  0  0  0  0  0  0  0  0  0
   12.2845  -12.9097   16.5556 H   0  0  0  0  0  0  0  0  0  0  0  0
   14.9674  -14.5229   13.1415 H   0  0  0  0  0  0  0  0  0  0  0  0
   15.2587  -13.5364   11.6160 H   0  0  0  0  0  0  0  0  0  0  0  0
   16.9747  -14.8574   11.1673 H   0  0  0  0  0  0  0  0  0  0  0  0
   17.7844  -14.1200   12.6510 H   0  0  0  0  0  0  0  0  0  0  0  0
   17.0971  -15.4407   14.9565 H   0  0  0  0  0  0  0  0  0  0  0  0
   15.4878  -15.7850   14.4172 H   0  0  0  0  0  0  0  0  0  0  0  0
   16.9661  -17.7600   15.7032 H   0  0  0  0  0  0  0  0  0  0  0  0
   15.9515  -18.2786   14.3872 H   0  0  0  0  0  0  0  0  0  0  0  0
   18.9080  -18.1923   14.4607 H   0  0  0  0  0  0  0  0  0  0  0  0
   17.9418  -18.7140   13.0812 H   0  0  0  0  0  0  0  0  0  0  0  0
   18.9982  -15.8974   13.7437 H   0  0  0  0  0  0  0  0  0  0  0  0
   18.9997  -16.6422   12.1869 H   0  0  0  0  0  0  0  0  0  0  0  0
   13.7888  -15.3967   19.6998 H   0  0  0  0  0  0  0  0  0  0  0  0
   14.8189  -14.4366   18.4562 H   0  0  0  0  0  0  0  0  0  0  0  0
   15.1325  -16.8312   21.2001 H   0  0  0  0  0  0  0  0  0  0  0  0
   17.2652  -17.4257   22.2810 H   0  0  0  0  0  0  0  0  0  0  0  0
   17.0439  -13.3116   19.4664 H   0  0  0  0  0  0  0  0  0  0  0  0
   19.6504  -17.3616   22.3044 H   0  0  0  0  0  0  0  0  0  0  0  0
   20.5555  -15.8877   21.6714 H   0  0  0  0  0  0  0  0  0  0  0  0
   21.9488  -15.0823   23.6902 H   0  0  0  0  0  0  0  0  0  0  0  0
   20.8199  -13.8315   23.1501 H   0  0  0  0  0  0  0  0  0  0  0  0
   21.6934  -13.8654   25.7947 H   0  0  0  0  0  0  0  0  0  0  0  0
   20.0706  -13.3773   25.5186 H   0  0  0  0  0  0  0  0  0  0  0  0
   21.0229  -15.9077   26.6946 H   0  0  0  0  0  0  0  0  0  0  0  0
   19.3103  -15.4919   26.3684 H   0  0  0  0  0  0  0  0  0  0  0  0
   21.2657  -17.0940   24.6087 H   0  0  0  0  0  0  0  0  0  0  0  0
   19.6094  -17.4885   24.9435 H   0  0  0  0  0  0  0  0  0  0  0  0
  2  1  1  0  0  0  0
  2 39  1  0  0  0  0
  4  1  2  0  0  0  0
  4 40  1  0  0  0  0
  5  3  1  0  0  0  0
  5  4  1  0  0  0  0
  6  5  2  0  0  0  0
  7  6  1  0  0  0  0
  7 41  1  0  0  0  0
  8  7  2  0  0  0  0
  8  1  1  0  0  0  0
  8 42  1  0  0  0  0
  9  3  1  0  0  0  0
 10  9  2  0  0  0  0
 10  6  1  0  0  0  0
 11  9  1  0  0  0  0
 12 11  2  0  0  0  0
 12 43  1  0  0  0  0
 13 12  1  0  0  0  0
 13 44  1  0  0  0  0
 14 13  2  0  0  0  0
 15 14  1  0  0  0  0
 15 45  1  0  0  0  0
 16 15  2  0  0  0  0
 16 11  1  0  0  0  0
 16 46  1  0  0  0  0
 17 14  1  0  0  0  0
 18 17  1  0  0  0  0
 18 47  1  0  0  0  0
 18 48  1  0  0  0  0
 19 18  1  0  0  0  0
 19 49  1  0  0  0  0
 19 50  1  0  0  0  0
 20 19  1  0  0  0  0
 21 20  1  0  0  0  0
 21 51  1  0  0  0  0
 21 52  1  0  0  0  0
 22 21  1  0  0  0  0
 22 53  1  0  0  0  0
 22 54  1  0  0  0  0
 23 22  1  0  0  0  0
 23 55  1  0  0  0  0
 23 56  1  0  0  0  0
 24 23  1  0  0  0  0
 24 20  1  0  0  0  0
 24 57  1  0  0  0  0
 24 58  1  0  0  0  0
 25 10  1  0  0  0  0
 25 59  1  0  0  0  0
 25 60  1  0  0  0  0
 26 25  1  0  0  0  0
 27 26  2  0  0  0  0
 27 61  1  0  0  0  0
 28 27  1  0  0  0  0
 28 62  1  0  0  0  0
 29 28  2  0  0  0  0
 30 29  1  0  0  0  0
 31 26  1  0  0  0  0
 31 30  2  0  0  0  0
 31 63  1  0  0  0  0
 32 30  1  0  0  0  0
 33 29  1  0  0  0  0
 33 64  1  0  0  0  0
 33 65  1  0  0  0  0
 34 33  1  0  0  0  0
 35 34  1  0  0  0  0
 35 66  1  0  0  0  0
 35 67  1  0  0  0  0
 36 35  1  0  0  0  0
 36 68  1  0  0  0  0
 36 69  1  0  0  0  0
 37 36  1  0  0  0  0
 37 70  1  0  0  0  0
 37 71  1  0  0  0  0
 38 37  1  0  0  0  0
 38 34  1  0  0  0  0
 38 72  1  0  0  0  0
 38 73  1  0  0  0  0
M  END
$$$$
