UC3
 OpenBabel06142215323D

 38 38  0  0  0  0  0  0  0  0999 V2000
    0.8880  -39.5730   21.8870 Cl  0  0  0  0  0  0  0  0  0  0  0  0
    2.8820  -38.3270   17.9510 C   0  0  0  0  0  0  0  0  0  0  0  0
    2.1020  -37.3990   18.6790 C   0  0  0  0  0  0  0  0  0  0  0  0
    1.4640  -37.7620   19.8740 C   0  0  0  0  0  0  0  0  0  0  0  0
    1.6190  -39.0840   20.3570 C   0  0  0  0  0  0  0  0  0  0  0  0
    2.3830  -40.0220   19.6390 C   0  0  0  0  0  0  0  0  0  0  0  0
    3.0140  -39.6450   18.4460 C   0  0  0  0  0  0  0  0  0  0  0  0
    3.5340  -37.9400   16.7110 N   0  0  0  0  0  0  0  0  0  0  0  0
    4.9050  -37.9810   16.3550 C   0  0  0  0  0  0  0  0  0  0  0  0
    5.5650  -39.3680   15.6380 S   0  0  0  0  0  0  0  0  0  0  0  0
    5.5510  -36.8000   16.6710 O   0  0  0  0  0  0  0  0  0  0  0  0
    6.7590  -36.8910   17.4750 C   0  0  0  0  0  0  0  0  0  0  0  0
    7.4170  -35.4890   17.5410 C   0  0  0  0  0  0  0  0  0  0  0  0
    6.3850  -37.4180   18.8850 C   0  0  0  0  0  0  0  0  0  0  0  0
    0.6320  -36.6830   20.5940 C   0  0  0  0  0  0  0  0  0  0  0  0
    0.5590  -36.5550   21.8040 O   0  0  0  0  0  0  0  0  0  0  0  0
   -0.0330  -35.8610   19.7020 O   0  0  0  0  0  0  0  0  0  0  0  0
   -1.3810  -36.2950   19.4300 C   0  0  0  0  0  0  0  0  0  0  0  0
   -2.3220  -35.5710   20.4080 C   0  0  0  0  0  0  0  0  0  0  0  0
   -1.7160  -35.9630   17.9680 C   0  0  0  0  0  0  0  0  0  0  0  0
    1.9935  -36.3719   18.3005 H   0  0  0  0  0  0  0  0  0  0  0  0
    2.4850  -41.0511   20.0140 H   0  0  0  0  0  0  0  0  0  0  0  0
    3.6161  -40.3793   17.8908 H   0  0  0  0  0  0  0  0  0  0  0  0
    2.9036  -37.5813   15.9797 H   0  0  0  0  0  0  0  0  0  0  0  0
    7.4816  -37.5910   17.0301 H   0  0  0  0  0  0  0  0  0  0  0  0
    7.5539  -35.1973   18.5928 H   0  0  0  0  0  0  0  0  0  0  0  0
    8.3951  -35.5190   17.0385 H   0  0  0  0  0  0  0  0  0  0  0  0
    6.7690  -34.7558   17.0385 H   0  0  0  0  0  0  0  0  0  0  0  0
    6.8422  -36.7737   19.6504 H   0  0  0  0  0  0  0  0  0  0  0  0
    5.2913  -37.4072   19.0023 H   0  0  0  0  0  0  0  0  0  0  0  0
    6.7562  -38.4468   19.0023 H   0  0  0  0  0  0  0  0  0  0  0  0
   -1.4963  -37.3800   19.5698 H   0  0  0  0  0  0  0  0  0  0  0  0
   -2.0237  -35.8005   21.4416 H   0  0  0  0  0  0  0  0  0  0  0  0
   -2.2599  -34.4855   20.2409 H   0  0  0  0  0  0  0  0  0  0  0  0
   -3.3553  -35.9092   20.2409 H   0  0  0  0  0  0  0  0  0  0  0  0
   -2.4970  -35.1890   17.9375 H   0  0  0  0  0  0  0  0  0  0  0  0
   -0.8132  -35.5932   17.4598 H   0  0  0  0  0  0  0  0  0  0  0  0
   -2.0777  -36.8691   17.4598 H   0  0  0  0  0  0  0  0  0  0  0  0
  3  2  2  0  0  0  0
  3 21  1  0  0  0  0
  4  3  1  0  0  0  0
  5  1  1  0  0  0  0
  5  4  2  0  0  0  0
  6  5  1  0  0  0  0
  6 22  1  0  0  0  0
  7  6  2  0  0  0  0
  7  2  1  0  0  0  0
  7 23  1  0  0  0  0
  8  2  1  0  0  0  0
  8 24  1  0  0  0  0
  9  8  1  0  0  0  0
 10  9  2  0  0  0  0
 11  9  1  0  0  0  0
 12 11  1  0  0  0  0
 12 25  1  0  0  0  0
 13 12  1  0  0  0  0
 13 26  1  0  0  0  0
 13 27  1  0  0  0  0
 13 28  1  0  0  0  0
 14 12  1  0  0  0  0
 14 29  1  0  0  0  0
 14 30  1  0  0  0  0
 14 31  1  0  0  0  0
 15  4  1  0  0  0  0
 16 15  2  0  0  0  0
 17 15  1  0  0  0  0
 18 17  1  0  0  0  0
 18 32  1  0  0  0  0
 19 18  1  0  0  0  0
 19 33  1  0  0  0  0
 19 34  1  0  0  0  0
 19 35  1  0  0  0  0
 20 18  1  0  0  0  0
 20 36  1  0  0  0  0
 20 37  1  0  0  0  0
 20 38  1  0  0  0  0
M  END
$$$$
