VDN
 OpenBabel10042221383D

 66 69  0  0  0  0  0  0  0  0999 V2000
  -24.0570   28.4530   72.1460 C   0  0  0  0  0  0  0  0  0  0  0  0
  -24.8550   27.7270   73.0330 C   0  0  0  0  0  0  0  0  0  0  0  0
  -25.1370   26.3910   72.7550 C   0  0  0  0  0  0  0  0  0  0  0  0
  -24.6300   25.7740   71.6020 C   0  0  0  0  0  0  0  0  0  0  0  0
  -23.8400   26.5130   70.7220 C   0  0  0  0  0  0  0  0  0  0  0  0
  -23.5280   27.8280   71.0190 C   0  0  0  0  0  0  0  0  0  0  0  0
  -22.7490   28.6970   70.1000 C   0  0  0  0  0  0  0  0  0  0  0  0
  -21.3360   28.4620   69.9090 N   0  0  0  0  0  0  0  0  0  0  0  0
  -20.6270   29.0110   68.9240 C   0  0  0  0  0  0  0  0  0  0  0  0
  -21.4260   29.7170   67.9050 C   0  0  0  0  0  0  0  0  0  0  0  0
  -19.4130   28.8770   68.8820 O   0  0  0  0  0  0  0  0  0  0  0  0
  -22.7330   29.8560   67.9550 N   0  0  0  0  0  0  0  0  0  0  0  0
  -21.0550   30.3510   66.7250 C   0  0  0  0  0  0  0  0  0  0  0  0
  -23.4540   29.2650   68.9850 N   0  0  0  0  0  0  0  0  0  0  0  0
  -23.2640   30.4850   66.9400 C   0  0  0  0  0  0  0  0  0  0  0  0
  -22.2040   30.8200   66.1660 N   0  0  0  0  0  0  0  0  0  0  0  0
  -19.6870   30.5130   66.1220 C   0  0  0  0  0  0  0  0  0  0  0  0
  -24.7150   30.8130   66.7370 C   0  0  0  0  0  0  0  0  0  0  0  0
  -25.0320   32.0800   67.5320 C   0  0  0  0  0  0  0  0  0  0  0  0
  -26.0740   31.7440   68.5720 C   0  0  0  0  0  0  0  0  0  0  0  0
  -23.7420   29.7770   72.3650 O   0  0  0  0  0  0  0  0  0  0  0  0
  -24.5790   30.8510   71.9560 C   0  0  0  0  0  0  0  0  0  0  0  0
  -23.7200   31.9930   71.4560 C   0  0  0  0  0  0  0  0  0  0  0  0
  -24.9600   24.2430   71.2510 S   0  0  0  0  0  0  0  0  0  0  0  0
  -24.0330   23.3420   71.8650 O   0  0  0  0  0  0  0  0  0  0  0  0
  -26.2830   23.9720   71.7250 O   0  0  0  0  0  0  0  0  0  0  0  0
  -24.9100   23.9770   69.7420 N   0  0  0  0  0  0  0  0  0  0  0  0
  -26.0030   24.6050   68.9830 C   0  0  0  0  0  0  0  0  0  0  0  0
  -25.8570   24.4100   67.4850 C   0  0  0  0  0  0  0  0  0  0  0  0
  -24.4690   24.6930   67.1810 N   0  0  0  0  0  0  0  0  0  0  0  0
  -23.5720   23.6430   67.6320 C   0  0  0  0  0  0  0  0  0  0  0  0
  -23.6210   23.5700   69.1640 C   0  0  0  0  0  0  0  0  0  0  0  0
  -24.2120   25.3100   65.8840 C   0  0  0  0  0  0  0  0  0  0  0  0
  -23.3470   26.5540   66.0510 C   0  0  0  0  0  0  0  0  0  0  0  0
  -25.2558   28.2038   73.9396 H   0  0  0  0  0  0  0  0  0  0  0  0
  -25.7652   25.8129   73.4486 H   0  0  0  0  0  0  0  0  0  0  0  0
  -23.4664   26.0525   69.7955 H   0  0  0  0  0  0  0  0  0  0  0  0
  -24.4829   29.2345   68.9494 H   0  0  0  0  0  0  0  0  0  0  0  0
  -18.9405   30.6014   66.9250 H   0  0  0  0  0  0  0  0  0  0  0  0
  -19.4543   29.6361   65.4999 H   0  0  0  0  0  0  0  0  0  0  0  0
  -19.6655   31.4200   65.4999 H   0  0  0  0  0  0  0  0  0  0  0  0
  -24.9125   30.9842   65.6685 H   0  0  0  0  0  0  0  0  0  0  0  0
  -25.3455   29.9798   67.0810 H   0  0  0  0  0  0  0  0  0  0  0  0
  -24.1198   32.4466   68.0254 H   0  0  0  0  0  0  0  0  0  0  0  0
  -25.4101   32.8632   66.8585 H   0  0  0  0  0  0  0  0  0  0  0  0
  -25.6472   31.8816   69.5764 H   0  0  0  0  0  0  0  0  0  0  0  0
  -26.9426   32.4076   68.4486 H   0  0  0  0  0  0  0  0  0  0  0  0
  -26.3913   30.6980   68.4486 H   0  0  0  0  0  0  0  0  0  0  0  0
  -25.2446   30.5112   71.1488 H   0  0  0  0  0  0  0  0  0  0  0  0
  -25.1844   31.1916   72.8090 H   0  0  0  0  0  0  0  0  0  0  0  0
  -23.3061   32.5433   72.3138 H   0  0  0  0  0  0  0  0  0  0  0  0
  -22.8971   31.5928   70.8455 H   0  0  0  0  0  0  0  0  0  0  0  0
  -24.3327   32.6726   70.8455 H   0  0  0  0  0  0  0  0  0  0  0  0
  -26.9566   24.1614   69.3052 H   0  0  0  0  0  0  0  0  0  0  0  0
  -25.9715   25.6860   69.1840 H   0  0  0  0  0  0  0  0  0  0  0  0
  -26.1060   23.3750   67.2078 H   0  0  0  0  0  0  0  0  0  0  0  0
  -26.5358   25.0691   66.9239 H   0  0  0  0  0  0  0  0  0  0  0  0
  -23.8883   22.6793   67.2063 H   0  0  0  0  0  0  0  0  0  0  0  0
  -22.5459   23.8630   67.3024 H   0  0  0  0  0  0  0  0  0  0  0  0
  -23.4184   22.5322   69.4673 H   0  0  0  0  0  0  0  0  0  0  0  0
  -22.8667   24.2768   69.5402 H   0  0  0  0  0  0  0  0  0  0  0  0
  -23.6903   24.5897   65.2367 H   0  0  0  0  0  0  0  0  0  0  0  0
  -25.1710   25.5998   65.4298 H   0  0  0  0  0  0  0  0  0  0  0  0
  -23.2038   26.7599   67.1220 H   0  0  0  0  0  0  0  0  0  0  0  0
  -22.3691   26.3871   65.5757 H   0  0  0  0  0  0  0  0  0  0  0  0
  -23.8439   27.4126   65.5757 H   0  0  0  0  0  0  0  0  0  0  0  0
  2  1  2  0  0  0  0
  2 35  1  0  0  0  0
  3  2  1  0  0  0  0
  3 36  1  0  0  0  0
  4  3  2  0  0  0  0
  5  4  1  0  0  0  0
  5 37  1  0  0  0  0
  6  5  2  0  0  0  0
  6  1  1  0  0  0  0
  7  6  1  0  0  0  0
  8  7  2  0  0  0  0
  9  8  1  0  0  0  0
 10  9  1  0  0  0  0
 11  9  2  0  0  0  0
 12 10  1  0  0  0  0
 13 10  2  0  0  0  0
 14 12  1  0  0  0  0
 14  7  1  0  0  0  0
 14 38  1  0  0  0  0
 15 12  1  0  0  0  0
 16 15  2  0  0  0  0
 16 13  1  0  0  0  0
 17 13  1  0  0  0  0
 17 39  1  0  0  0  0
 17 40  1  0  0  0  0
 17 41  1  0  0  0  0
 18 15  1  0  0  0  0
 18 42  1  0  0  0  0
 18 43  1  0  0  0  0
 19 18  1  0  0  0  0
 19 44  1  0  0  0  0
 19 45  1  0  0  0  0
 20 19  1  0  0  0  0
 20 46  1  0  0  0  0
 20 47  1  0  0  0  0
 20 48  1  0  0  0  0
 21  1  1  0  0  0  0
 22 21  1  0  0  0  0
 22 49  1  0  0  0  0
 22 50  1  0  0  0  0
 23 22  1  0  0  0  0
 23 51  1  0  0  0  0
 23 52  1  0  0  0  0
 23 53  1  0  0  0  0
 24  4  1  0  0  0  0
 25 24  2  0  0  0  0
 26 24  2  0  0  0  0
 27 24  1  0  0  0  0
 28 27  1  0  0  0  0
 28 54  1  0  0  0  0
 28 55  1  0  0  0  0
 29 28  1  0  0  0  0
 29 56  1  0  0  0  0
 29 57  1  0  0  0  0
 30 29  1  0  0  0  0
 31 30  1  0  0  0  0
 31 58  1  0  0  0  0
 31 59  1  0  0  0  0
 32 31  1  0  0  0  0
 32 27  1  0  0  0  0
 32 60  1  0  0  0  0
 32 61  1  0  0  0  0
 33 30  1  0  0  0  0
 33 62  1  0  0  0  0
 33 63  1  0  0  0  0
 34 33  1  0  0  0  0
 34 64  1  0  0  0  0
 34 65  1  0  0  0  0
 34 66  1  0  0  0  0
M  END
$$$$
