03U
 OpenBabel04122212363D

 44 45  0  0  0  0  0  0  0  0999 V2000
   -8.4910   32.1700   -2.0490 C   0  0  0  0  0  0  0  0  0  0  0  0
   -8.8170   31.9480   -0.6980 C   0  0  0  0  0  0  0  0  0  0  0  0
   -7.2210   32.5980   -2.3940 C   0  0  0  0  0  0  0  0  0  0  0  0
   -9.4850   30.3610   -3.3300 C   0  0  0  0  0  0  0  0  0  0  0  0
   -9.5200   31.7190   -3.0070 C   0  0  0  0  0  0  0  0  0  0  0  0
  -14.8850   26.6580   -8.5790 C   0  0  0  0  0  0  0  0  0  0  0  0
  -10.4610   29.7920   -4.1480 C   0  0  0  0  0  0  0  0  0  0  0  0
  -11.5350   31.9320   -4.3050 C   0  0  0  0  0  0  0  0  0  0  0  0
   -7.9360   32.2540    0.3160 C   0  0  0  0  0  0  0  0  0  0  0  0
   -6.3270   32.9000   -1.3730 C   0  0  0  0  0  0  0  0  0  0  0  0
  -15.6910   27.1530   -7.3600 C   0  0  0  0  0  0  0  0  0  0  0  0
  -10.5660   32.5050   -3.4860 C   0  0  0  0  0  0  0  0  0  0  0  0
  -11.4880   30.5840   -4.6370 C   0  0  0  0  0  0  0  0  0  0  0  0
  -15.4470   29.9520   -6.6990 C   0  0  0  0  0  0  0  0  0  0  0  0
  -14.7280   27.6840   -6.3110 C   0  0  0  0  0  0  0  0  0  0  0  0
   -6.6880   32.7290   -0.0380 C   0  0  0  0  0  0  0  0  0  0  0  0
  -14.6380   29.0030   -6.0220 C   0  0  0  0  0  0  0  0  0  0  0  0
   -9.4060   35.1930   -4.7680 C   0  0  0  0  0  0  0  0  0  0  0  0
  -16.1550   30.6730   -7.2590 N   0  0  0  0  0  0  0  0  0  0  0  0
  -13.9620   26.7680   -5.6970 O   0  0  0  0  0  0  0  0  0  0  0  0
   -5.8450   33.0200    0.9280 F   0  0  0  0  0  0  0  0  0  0  0  0
  -12.5120   30.0350   -5.4320 N   0  0  0  0  0  0  0  0  0  0  0  0
  -11.7110   34.3760   -2.6790 O   0  0  0  0  0  0  0  0  0  0  0  0
  -14.0010   29.5270   -3.8420 O   0  0  0  0  0  0  0  0  0  0  0  0
  -13.7120   29.5340   -5.0190 C   0  0  0  0  0  0  0  0  0  0  0  0
  -10.7030   33.9320   -3.1660 C   0  0  0  0  0  0  0  0  0  0  0  0
   -9.6590   34.7600   -3.4230 O   0  0  0  0  0  0  0  0  0  0  0  0
   -9.7378   31.5465   -0.4613 H   0  0  0  0  0  0  0  0  0  0  0  0
   -6.9446   32.6906   -3.3840 H   0  0  0  0  0  0  0  0  0  0  0  0
   -8.7256   29.7695   -2.9579 H   0  0  0  0  0  0  0  0  0  0  0  0
  -15.5569   26.2824   -9.3222 H   0  0  0  0  0  0  0  0  0  0  0  0
  -14.2191   25.8782   -8.2735 H   0  0  0  0  0  0  0  0  0  0  0  0
  -14.3200   27.4701   -8.9867 H   0  0  0  0  0  0  0  0  0  0  0  0
  -10.4188   28.7890   -4.3873 H   0  0  0  0  0  0  0  0  0  0  0  0
  -12.3010   32.5185   -4.6716 H   0  0  0  0  0  0  0  0  0  0  0  0
   -8.1994   32.1325    1.3064 H   0  0  0  0  0  0  0  0  0  0  0  0
   -5.3863   33.2545   -1.6062 H   0  0  0  0  0  0  0  0  0  0  0  0
  -16.2558   26.3418   -6.9503 H   0  0  0  0  0  0  0  0  0  0  0  0
  -16.3608   27.9309   -7.6619 H   0  0  0  0  0  0  0  0  0  0  0  0
   -8.5506   35.8356   -4.7809 H   0  0  0  0  0  0  0  0  0  0  0  0
  -10.2575   35.7252   -5.1375 H   0  0  0  0  0  0  0  0  0  0  0  0
   -9.2213   34.3409   -5.3882 H   0  0  0  0  0  0  0  0  0  0  0  0
  -14.0472   25.8616   -5.9185 H   0  0  0  0  0  0  0  0  0  0  0  0
  -12.3420   30.0096   -6.4014 H   0  0  0  0  0  0  0  0  0  0  0  0
  2  1  2  0  0  0  0
  2 28  1  0  0  0  0
  3  1  1  0  0  0  0
  3 29  1  0  0  0  0
  4 30  1  0  0  0  0
  5  4  2  0  0  0  0
  5  1  1  0  0  0  0
  6 31  1  0  0  0  0
  6 32  1  0  0  0  0
  6 33  1  0  0  0  0
  7  4  1  0  0  0  0
  7 34  1  0  0  0  0
  8 35  1  0  0  0  0
  9  2  1  0  0  0  0
  9 36  1  0  0  0  0
 10  3  2  0  0  0  0
 10 37  1  0  0  0  0
 11  6  1  0  0  0  0
 11 38  1  0  0  0  0
 11 39  1  0  0  0  0
 12  8  2  0  0  0  0
 12  5  1  0  0  0  0
 13  8  1  0  0  0  0
 13  7  2  0  0  0  0
 15 11  1  0  0  0  0
 16  9  2  0  0  0  0
 16 10  1  0  0  0  0
 17 15  2  3  0  0  0
 17 14  1  0  0  0  0
 18 40  1  0  0  0  0
 18 41  1  0  0  0  0
 18 42  1  0  0  0  0
 19 14  3  0  0  0  0
 20 15  1  0  0  0  0
 20 43  1  0  0  0  0
 21 16  1  0  0  0  0
 22 13  1  0  0  0  0
 22 44  1  0  0  0  0
 25 17  1  0  0  0  0
 25 24  2  0  0  0  0
 25 22  1  0  0  0  0
 26 23  2  0  0  0  0
 26 12  1  0  0  0  0
 27 26  1  0  0  0  0
 27 18  1  0  0  0  0
M  END
$$$$
